24
1,1,3-TRIMETHYLCYCLOPENTANE.gamout	Energy:    -314.2760676
C          0.76754        2.84945        1.20828
C          1.71055        1.93143        2.00885
C          0.88860        1.08468        2.99158
C          2.78680        2.78065        2.74138
C          2.55296        1.03630        1.02802
C          3.95802        2.91984        1.75330
C          4.02393        1.50334        1.14696
C          5.26788        3.40775        2.37521
H          0.15337        3.47962        1.88196
H          0.07690        2.25236        0.58073
H          1.33413        3.52189        0.53501
H          0.12602        0.47756        2.46232
H          0.35307        1.72532        3.72121
H          1.53792        0.39242        3.56341
H          2.39018        3.75527        3.08764
H          3.14540        2.23695        3.64278
H          2.44937       -0.03705        1.27984
H          2.17804        1.14609       -0.00963
H          3.66153        3.63196        0.95063
H          4.57321        0.84508        1.85359
H          4.57629        1.47194        0.18769
H          5.60057        2.72032        3.18081
H          6.07755        3.46046        1.62135
H          5.15790        4.41809        2.81639
