6
1,1,2,2-TETRACHLOROETHENE.gamout	Energy:   -1916.5443309
Cl        -2.67375       -3.81636       -1.83470
C         -0.94247       -3.82496       -1.83470
Cl        -0.18648       -2.26740       -1.83470
C         -0.22274       -4.98104       -1.83470
Cl         1.50883       -4.99017       -1.83470
Cl        -0.97829       -6.53901       -1.83470
