8
1,1,1,2-TETRAFLUOROETHANE.gamout	Energy:    -476.4568775
F         -0.46727       -1.09350       -0.78841
C         -0.38893       -0.00001        0.00574
C          0.88270       -0.00034        0.85660
F          1.99720        0.00004        0.03637
F         -0.46719        1.09401       -0.78779
F         -1.46908       -0.00031        0.83670
H          0.88811        0.90972        1.48914
H          0.88815       -0.91080        1.48854
