8
1,1,2-TRIFLUOROETHANE.gamout	Energy:    -377.2746150
C         -0.36432       -1.74875       -0.05800
C          0.53607       -0.52111       -0.00430
F          1.75434       -0.85944       -0.55620
F          0.00108        0.50118       -0.74910
H          0.70448       -0.14154        1.02527
F         -1.52923       -1.49485        0.66313
H          0.16043       -2.61116        0.40062
H         -0.63045       -1.97401       -1.11066
