8
1,1,1-TRICHLOROETHANE.gamout	Energy:   -1458.2770738
C          2.58670        2.57877        2.45091
C          1.67663        1.62345        1.70108
Cl         2.14394        1.55415       -0.04760
Cl        -0.04527        2.17401        1.82109
Cl         1.80387       -0.04194        2.40100
H          2.49919        3.59087        2.01450
H          2.29091        2.61020        3.51601
H          3.63327        2.23135        2.36942
