27
1,1,2,2-TETRAMETHYLCYCLOPENTANE.gamout	Energy:    -353.5574665
C         -0.80715       -1.06325       -0.24362
C          0.75673       -1.11412        0.02657
C          1.19561        0.34051       -0.31299
C          0.01856        1.26458        0.10732
C         -1.19968        0.32671        0.33825
C          1.05972       -1.40203        1.51604
C          1.50814       -2.15043       -0.82748
C         -1.11268       -1.08461       -1.75901
C         -1.59607       -2.20233        0.42532
H          1.38864        0.42808       -1.40084
H          2.14591        0.60723        0.19009
H         -0.19215        2.01989       -0.67423
H          0.26114        1.83286        1.02589
H         -1.41692        0.23353        1.42121
H         -2.12754        0.70885       -0.13042
H          0.53543       -0.70676        2.19951
H          2.14610       -1.29589        1.70471
H          0.77552       -2.43353        1.79943
H          1.42199       -1.94058       -1.91003
H          1.13178       -3.17805       -0.64701
H          2.58746       -2.14990       -0.57626
H         -0.56517       -0.29778       -2.31240
H         -2.19456       -0.91676       -1.92888
H         -0.85764       -2.06045       -2.21558
H         -1.50064       -2.18433        1.52717
H         -1.26001       -3.19692        0.06836
H         -2.67488       -2.11581        0.18676
