27
1,1,4-TRIMETHYLCYCLOHEXANE.gamout	Energy:    -353.5593429
C          2.30953        0.72258        2.41136
C          2.02126        0.90710        3.91663
C          1.26562        2.21270        4.20502
C          2.76916        2.02889        1.67720
C          3.21625        3.06955        2.72952
C          1.61998        2.59772        0.82033
C          3.95474        1.70962        0.74686
C          2.12637        3.42937        3.76459
C          0.83387        2.32926        5.67138
H          3.08168       -0.06322        2.28599
H          1.39792        0.33226        1.91291
H          1.44181        0.03990        4.29612
H          2.97391        0.91050        4.49174
H          0.33876        2.19721        3.58822
H          4.10335        2.66315        3.25894
H          3.56708        3.98783        2.21516
H          0.71742        2.81867        1.42030
H          1.92504        3.53557        0.31204
H          1.32607        1.87207        0.03585
H          3.68244        0.93658       -0.00041
H          4.28682        2.60950        0.19027
H          4.81950        1.32846        1.32530
H          2.62001        3.87014        4.65668
H          1.46348        4.22381        3.36662
H          1.71393        2.29613        6.34712
H          0.30548        3.28562        5.85386
H          0.15283        1.50469        5.96080
