11
1,1,1,3,3,3-HEXAFLUOROPROPANE.gamout	Energy:    -714.1074987
C         -4.39563        2.67990        0.04812
C         -3.75320        4.04564       -0.19264
C         -2.24584        4.14041        0.04596
H         -4.24961        4.77624        0.47223
H         -3.94894        4.33267       -1.24225
F         -5.73122        2.76451       -0.20799
F         -4.25639        2.25609        1.32788
F         -3.88806        1.71829       -0.75992
F         -1.83335        5.41316       -0.21093
F         -1.90519        3.85427        1.32531
F         -1.53920        3.31484       -0.76313
