8
1,1,2-TRICHLOROTRIFLUOROETHANE.gamout	Energy:   -1755.7789363
C          0.46407        0.94974        0.00523
Cl        -0.43368        2.49375        0.02888
C          2.01629        1.20839       -0.00170
Cl         0.05449       -0.04246        1.43860
F          0.14273        0.25861       -1.11102
F          2.65819        0.02093        0.03543
Cl         2.51482        2.08245       -1.48055
F          2.36380        1.91936        1.08602
