11
1,1,1,2,3,3,3-HEPTAFLUOROPROPANE.gamout	Energy:    -813.2586380
F         -1.38395       -1.43394        0.42191
C         -1.31278       -0.14061        0.03201
C          0.00000        0.50974        0.54276
C          1.31278       -0.14061        0.03201
F          1.42345       -0.08641       -1.30858
F          2.36514        0.51911        0.56990
F          1.38394       -1.43393        0.42191
F          0.00000        1.83451        0.16225
F         -1.42345       -0.08641       -1.30858
F         -2.36514        0.51911        0.56990
H          0.00001        0.44374        1.65047
