8
1,1,2-TRICHLOROETHANE.gamout	Energy:   -1458.2772193
Cl        -1.06554       -1.48772       -0.20638
C         -0.59408        0.00000        0.69620
C          0.87965       -0.00000        1.07429
Cl         2.00591       -0.00000       -0.32772
Cl        -1.06554        1.48772       -0.20638
H         -1.19999       -0.00000        1.62198
H          1.09608        0.90404        1.67458
H          1.09607       -0.90405        1.67457
