27
1,1,3,3-TETRAMETHYLCYCLOPENTANE.gamout	Energy:    -353.5614082
C          1.83898        2.22107        2.08857
C          0.82619        3.29335        1.66634
C          1.15188        1.20483        3.01952
C          3.08207        2.84648        2.78401
C          2.46351        1.49605        0.86914
C          4.35083        2.03794        2.34724
C          3.79496        0.93627        1.39359
C          5.31318        2.95930        1.57773
C          5.07954        1.42524        3.55144
H          0.43518        3.84108        2.54659
H          1.29799        4.03077        0.98803
H         -0.03795        2.84376        1.13887
H          0.74911        1.71303        3.91702
H          1.85235        0.42139        3.36514
H          0.31039        0.70531        2.50166
H          3.18627        3.90676        2.47856
H          2.96131        2.85541        3.88573
H          1.79133        0.72220        0.44523
H          2.65364        2.23417        0.06176
H          3.62086       -0.00323        1.95684
H          4.50905        0.69013        0.58374
H          5.63452        3.81078        2.20974
H          6.22066        2.41081        1.25742
H          4.82800        3.37546        0.67292
H          4.39394        0.78889        4.14398
H          5.93508        0.79749        3.23028
H          5.47835        2.21242        4.22287
