8
1,1,1-TRIFLUOROETHANE.gamout	Energy:    -377.3024533
F         -0.44564        0.01778        1.26559
C          0.06138        0.00003       -0.00046
C          1.57160        0.00013        0.00109
F         -0.44738       -1.10518       -0.61744
F         -0.44717        1.08726       -0.64875
H          1.93464       -0.89539        0.53595
H          1.93757       -0.01468       -1.04086
H          1.93397        0.91058        0.51055
