8
1,1,1-TRICHLOROTRIFLUOROETHANE.gamout	Energy:   -1755.7846000
Cl        -1.31936        1.04757       -1.33573
Cl        -1.32125        0.63146        1.57519
Cl        -1.32064       -1.68067       -0.24020
F          1.28516        1.24995        0.17845
F          1.28596       -0.77764        0.99295
F          1.28126       -0.47064       -1.17083
C         -0.75389        0.00018        0.00041
C          0.81537        0.00099        0.00038
