11
1,1,1,3,3-PENTAFLUOROPROPANE.gamout	Energy:    -614.9264367
C         -2.44823        1.68345       -0.02671
C         -1.19562        2.52812        0.17117
C          0.11493        1.79355       -0.09936
H         -1.18608        2.91461        1.20791
H         -1.26289        3.38597       -0.52427
F         -3.56310        2.44477        0.14210
F         -2.50350        1.16121       -1.28696
F         -2.52700        0.64912        0.84328
F          1.14185        2.71407       -0.07484
F          0.36892        0.86989        0.88604
H          0.14862        1.26777       -1.07542
