8
1,1,1,2-TETRACHLOROETHANE.gamout	Energy:   -1917.7744401
Cl        -0.25033       -1.46883       -0.97727
C         -0.38098        0.00038        0.04872
C          0.67308        0.00009        1.15997
Cl         2.36326       -0.00095        0.55002
Cl        -0.25207        1.46957       -0.97800
Cl        -1.99031        0.00005        0.89506
H          0.53611        0.90524        1.77908
H          0.53539       -0.90525        1.77864
