10
1,1,1-TRICHLOROACETONE.gamout	Energy:   -1571.5196727
Cl         1.10529       -0.95403       -1.45946
Cl         1.03572       -0.98190        1.49937
Cl         1.47802        1.53181        0.05249
O         -1.38750        1.31999       -0.01620
C          0.62159       -0.02330        0.01832
C         -0.95013        0.19036       -0.01664
C         -1.81219       -1.05009       -0.05035
H         -2.86977       -0.73780       -0.07316
H         -1.57917       -1.66385       -0.94188
H         -1.62418       -1.68483        0.83722
