8
1,1,2,2-TETRACHLOROETHANE.gamout	Energy:   -1917.7762042
Cl        -0.57090        1.57282        0.92454
C         -0.57120        0.51371       -0.51557
C          0.57120       -0.51371       -0.51557
Cl         2.14713        0.34521       -0.71059
Cl         0.57090       -1.57282        0.92454
Cl        -2.14713       -0.34521       -0.71060
H         -0.45870        1.16779       -1.39917
H          0.45871       -1.16779       -1.39917
