27
1,1,2-TRIMETHYLCYCLOHEXANE.gamout	Energy:    -353.5628241
C          1.30389        1.46178        4.38952
C          1.88892        2.44279        3.35478
C          2.13336        1.81271        1.94115
C          3.16879        3.11755        3.90348
C          2.31863        2.94059        0.90322
C          0.91898        0.98171        1.48813
C          3.38550        0.90101        1.97353
C          4.37905        2.17306        3.92121
C          4.64002        1.59307        2.52573
H          0.27438        1.15634        4.12842
H          1.26597        1.94337        5.38620
H          1.91031        0.54085        4.49357
H          1.13436        3.24614        3.20887
H          3.41717        4.00505        3.28703
H          2.96546        3.50088        4.92441
H          1.37071        3.49733        0.76659
H          2.61081        2.52004       -0.07904
H          3.09062        3.67672        1.19110
H         -0.01367        1.57655        1.55143
H          0.78345        0.06632        2.09427
H          1.04463        0.66424        0.43392
H          3.57724        0.51919        0.94914
H          3.16237        0.00839        2.59513
H          5.27374        2.71512        4.28694
H          4.20290        1.34468        4.64016
H          5.48771        0.87903        2.55452
H          4.94515        2.41245        1.84191
