10
1,1-DICHLOROACETONE.gamout	Energy:   -1112.0216430
Cl        -0.83694        1.33935       -0.09104
Cl        -1.03301       -1.57789       -0.72073
O          1.71605       -0.10890       -1.28056
C          1.33960       -0.32793       -0.14762
C         -0.17585       -0.30425        0.21581
C          2.25858       -0.64102        1.01039
H         -0.36072       -0.52139        1.28259
H          3.31001       -0.64103        0.67561
H          1.99759       -1.62966        1.44247
H          2.11675        0.10742        1.81775
