8
1,1-DIFLUORO-1-CHLOROETHANE.gamout	Energy:    -737.6248564
C          0.95688        0.89707       -0.03607
Cl        -0.21682        2.25079        0.27722
F          2.19623        1.45116       -0.17007
F          0.98618        0.11269        1.08009
C          0.58304        0.09262       -1.25841
H          0.57777        0.74581       -2.14835
H          1.33532       -0.70879       -1.38978
H         -0.41587       -0.35597       -1.11860
