8
1,1-DICHLOROTETRAFLUOROETHANE.gamout	Energy:   -1395.4561308
C         21.98159       19.99602        0.00553
C         23.55145       19.99133        0.01402
Cl        24.15492       18.31021       -0.02371
Cl        24.15286       20.86461        1.45261
F         23.96180       20.63811       -1.10290
F         21.53384       21.26625       -0.00832
F         21.53215       19.37426       -1.10140
F         21.49148       19.37144        1.08860
