8
1,1-DICHLOROETHANE.gamout	Energy:    -998.7795461
C          2.14975        0.88906        0.83856
C          1.62392        2.05295        1.65098
Cl        -0.06473        1.73434        2.23268
Cl         2.71369        2.41040        3.05706
H          2.19120       -0.02923        1.45228
H          3.16750        1.12457        0.47211
H          1.48484        0.71210       -0.02906
H          1.56506        2.99468        1.07852
