15
1,1-DIMETHYLCYCLOPROPANE.gamout	Energy:    -196.3899244
C          3.18519        2.26971        0.75709
C          2.06168        2.02204        1.74880
C          1.56672        3.26556        2.46712
C          1.04722        0.94428        1.41799
C          2.07088        0.71546        2.51782
H          3.50213        1.33116        0.26360
H          4.07325        2.70268        1.26267
H          2.87093        2.97938       -0.03589
H          0.75030        3.02932        3.17657
H          1.18081        4.01578        1.74639
H          2.38567        3.74333        3.04361
H          1.16593        0.38888        0.47656
H          0.00047        1.10738        1.71182
H          2.88697        0.00390        2.32619
H          1.72074        0.72263        3.56002
