8
1,1-DICHLORO-1-FLUOROETHANE.gamout	Energy:   -1097.9496645
C          1.58818        0.26508       -0.79434
C          0.68991       -0.90252       -0.44867
H          1.00933       -1.32507        0.52244
H         -0.35278       -0.54093       -0.37446
H          0.75601       -1.68032       -1.22907
F          1.50818        1.23035        0.16944
Cl         3.32567       -0.24666       -0.89986
Cl         1.09622        1.03205       -2.36259
