8
1,1-DIFLUORO-2,2-DICHLOROETHANE.gamout	Energy:   -1197.1125660
C         17.97550       20.02366       -0.01521
C         19.29602       20.80986       -0.02182
Cl        16.55364       21.10776       -0.00331
Cl        17.96808       18.89044       -1.41191
F         19.37263       21.66656       -1.07763
F         19.37856       21.54306        1.13487
H         17.92880       19.40925        0.90198
H         20.16279       20.11585       -0.06031
