6
1,1-DIFLUOROETHYLENE.gamout	Energy:    -276.8760236
C          0.65192        1.26522        0.05556
C          1.98006        1.13923        0.09076
F          2.64245       -0.01806        0.06254
F          2.84627        2.15103        0.15865
H          0.19929        2.26210        0.08311
H          0.02280        0.37056       -0.00087
