8
1,1-DIFLUOROETHANE.gamout	Energy:    -278.1167141
C          2.31517        1.62095        0.81463
C          0.98556        0.91675        0.93876
F          1.03668       -0.03532        1.94309
F         -0.00766        1.81629        1.28677
H          2.57147        2.10586        1.77501
H          2.25981        2.38744        0.01890
H          3.10140        0.88851        0.55125
H          0.64826        0.40033        0.01569
