28
1,1-DIPHENYLETHANE.gamout	Energy:    -541.5495967
C          4.30752        4.76127        1.14900
C          4.42579        3.22400        1.11593
C          3.16616        2.57712        1.70016
C          5.69948        2.67418        1.76389
C          2.96857        2.49899        3.09567
C          2.15448        2.08280        0.85116
C          6.06151        1.32906        1.52309
C          6.53569        3.44702        2.59492
C          1.78952        1.95197        3.62535
C          0.97323        1.53246        1.37760
C          7.21653        0.77432        2.09245
C          7.69373        2.89299        3.17235
C          0.78608        1.46565        2.76812
C          8.04045        1.55661        2.92264
H          4.19361        5.13974        2.18391
H          5.19894        5.24031        0.69819
H          3.41556        5.08536        0.58147
H          4.46552        2.92377        0.04627
H          3.75530        2.86194        3.77386
H          2.29572        2.13151       -0.23992
H          5.41840        0.70821        0.88022
H          6.29156        4.49900        2.79734
H          1.65487        1.89867        4.71615
H          0.19738        1.14989        0.69739
H          7.47765       -0.27450        1.88621
H          8.32999        3.51650        3.81817
H         -0.13535        1.03240        3.18395
H          8.94754        1.12438        3.36996
