8
1,1-DIFLUORO-2-BROMOETHANE.gamout	Energy:   -2851.6318620
Br         0.02986       18.94106       -0.05596
C          1.68106       19.98892        0.03596
C          1.37110       21.47529        0.00381
F          0.73858       21.86951        1.15600
F          2.57359       22.15591       -0.06367
H          2.20457       19.72979        0.97377
H          2.29772       19.71616       -0.83800
H          0.74607       21.79037       -0.85704
