16
1,1-DIMETHOXYETHANE.gamout	Energy:    -308.6599455
O          1.97643        0.90576        1.93756
C          3.02690        1.60532        2.61555
O          4.17931        1.55972        1.82425
C          3.35557        0.96938        3.95982
C          0.66650        1.34548        2.25225
C          4.07757        2.27862        0.59877
H          2.69261        2.67037        2.74656
H          2.46420        0.96548        4.61570
H          4.15753        1.53955        4.46587
H          3.69492       -0.07074        3.80023
H         -0.02656        0.80098        1.58508
H          0.38251        1.12863        3.30831
H          0.54995        2.44048        2.07584
H          5.06695        2.22067        0.10922
H          3.30882        1.83473       -0.06658
H          3.82514        3.34793        0.78550
