32
1,10-DIBROMODECANE.gamout	Energy:   -5541.0961260
C         51.97483       10.10006       -0.00011
C         53.29683        9.31248        0.00014
C         52.18276       11.62826        0.00009
C         53.10390        7.78835       -0.00008
C         54.42433        7.00323        0.00014
C         54.22332        5.48022       -0.00005
C         55.53850        4.68120        0.00012
C         55.31506        3.15508       -0.00006
C         56.63096        2.38947        0.00009
C         50.85892       12.37977       -0.00012
Br        51.12562       14.34973        0.00019
Br        56.34367        0.42226       -0.00012
H         51.37571        9.80523       -0.88933
H         51.37533        9.80499        0.88878
H         53.89759        9.60673        0.88850
H         53.89807        9.60683       -0.88787
H         52.77490       11.92635        0.89017
H         52.77532       11.92649       -0.88966
H         52.50360        7.49218       -0.88856
H         52.50317        7.49191        0.88802
H         55.02603        7.29725        0.88844
H         55.02645        7.29750       -0.88780
H         53.62062        5.19025       -0.88849
H         53.62020        5.19014        0.88808
H         56.14088        4.96960        0.88928
H         56.14122        4.96985       -0.88874
H         54.71997        2.86291       -0.89021
H         54.71964        2.86274        0.88983
H         57.23833        2.58987        0.90139
H         57.23865        2.58998       -0.90098
H         50.25387       12.17286       -0.90147
H         50.25343       12.17268        0.90091
