15
1,2,4-BENZENETRIOL.gamout	Energy:    -457.6246535
O         -1.72522        1.73642       -0.00000
O         -2.50206       -0.84481        0.00000
O          2.92236        0.41451        0.00000
C         -0.76862        0.75957       -0.00000
C         -1.13751       -0.60473       -0.00000
C          1.57925        0.11451       -0.00000
C          0.58836        1.11468        0.00000
C         -0.14468       -1.59213       -0.00000
C          1.21669       -1.24302       -0.00000
H          0.85141        2.18248        0.00000
H         -0.43281       -2.65498        0.00000
H          2.00018       -2.01162       -0.00000
H         -2.59965        1.29830       -0.00000
H         -2.67742       -1.80101       -0.00010
H          3.04418        1.38014       -0.00009
