12
1,2,4-TRICHLOROBENZENE.gamout	Energy:   -1610.6058830
C          6.33087        1.86897       -0.67283
C          6.87941        0.61826       -0.33907
C          4.94254        2.05336       -0.72421
C          4.09956        0.96775       -0.43655
C          4.62605       -0.28734       -0.10164
Cl         2.35789        1.17716       -0.49449
C          6.01963       -0.46376       -0.05230
Cl         6.64837       -2.03859        0.36866
Cl         8.61503        0.43535       -0.28787
H          7.00713        2.70544       -0.89436
H          4.51974        3.03189       -0.98558
H          3.96283       -1.13139        0.12216
