22
1,2,3,4-TETRAHYDRONAPHTHALENE.gamout	Energy:    -388.0351863
C          3.49994        1.86452        1.42688
C          3.38878        3.27499        1.46949
C          4.62172        4.16211        1.52360
C          2.10466        3.86091        1.49206
C          2.32310        1.08546        1.41214
C          4.85710        1.18219        1.36503
C          5.91292        3.45180        1.09326
C          0.94501        3.07705        1.47570
C          1.05519        1.67836        1.43605
C          6.02288        2.08887        1.78720
H          4.74481        4.53265        2.56691
H          4.45054        5.06621        0.90398
H          2.01853        4.95810        1.52360
H          2.40773       -0.01195        1.38081
H          5.03055        0.83408        0.32126
H          4.83384        0.26396        1.98646
H          6.79216        4.08567        1.32849
H          5.91419        3.30359       -0.00881
H         -0.04518        3.55197        1.49188
H          0.15193        1.05358        1.42547
H          6.99025        1.60181        1.54774
H          6.00604        2.23746        2.88906
