15
1,2,3-BENZENETRIOL.gamout	Energy:    -457.6217779
O          7.20203        2.87345       -0.93953
C          6.30723        1.87060       -0.67330
O          8.20324        0.44381       -0.29014
C          6.84826        0.61054       -0.33665
O          6.59953       -1.64409        0.26361
C          5.96864       -0.45600       -0.05390
C          4.91073        2.04229       -0.72132
C          4.05064        0.97028       -0.43726
C          4.57585       -0.28824       -0.10112
H          6.71460        3.68740       -1.15740
H          8.37718       -0.48572       -0.04287
H          5.94118       -2.33595        0.44658
H          4.50184        3.02913       -0.98491
H          2.96245        1.11696       -0.47829
H          3.91038       -1.13538        0.12335
