17
1,2,3-TRICHLORO-2-METHYLBUTANE.gamout	Energy:   -1576.1464974
C          0.91681        0.02398       -0.10863
C          0.47915       -0.87482        1.05767
C          0.91324       -2.34769        0.88500
C          0.43413       -3.31712        1.95657
C          0.93937       -0.31536        2.40880
Cl         0.42576       -2.99894       -0.76185
Cl        -1.36772       -0.75694        1.00079
Cl         2.73263        0.11482       -0.25234
H          0.54160       -0.36672       -1.06823
H          0.56178        1.05615        0.05132
H          2.02059       -2.33001        0.84168
H         -0.66977       -3.33959        2.00247
H          0.83020       -3.02504        2.94849
H          0.80165       -4.33383        1.73142
H          0.69021        0.75958        2.47366
H          2.03689       -0.42360        2.50979
H          0.44620       -0.83366        3.24803
