12
1,2,3,5-TETRAFLUOROBENZENE.gamout	Energy:    -628.7517923
F          7.15140        2.89359       -0.94485
C          6.33539        1.86342       -0.67174
C          6.85725        0.60289       -0.33506
C          4.93976        2.02130       -0.71592
F          8.19383        0.45214       -0.29280
C          6.02357       -0.48264       -0.04710
F          4.44226        3.22937       -1.03857
C          4.07265        0.96075       -0.43478
C          4.64162       -0.27390       -0.10494
F          3.81831       -1.31196        0.17053
H          6.44500       -1.46070        0.21426
H          2.98542        1.09963       -0.47331
