12
1,2,3,4-TETRAFLUOROBENZENE.gamout	Energy:    -628.7462819
F          7.14627        2.88766       -0.94337
C          6.32774        1.86148       -0.67126
C          6.86661        0.60786       -0.33642
C          4.93190        2.02477       -0.71687
F          8.19642        0.44436       -0.29051
C          6.00150       -0.46340       -0.05239
F          4.43862        3.23730       -1.04058
C          4.07623        0.95748       -0.43380
F          6.54040       -1.65740        0.26667
C          4.61529       -0.29603       -0.09905
H          2.99107        1.11755       -0.47813
H          3.96689       -1.15214        0.12817
