12
1,2,3-TRICHLOROBENZENE.gamout	Energy:   -1610.6021932
C          6.34343        1.87360       -0.67414
C          6.88384        0.62313       -0.34027
C          4.95314        2.05166       -0.72388
C          4.09943        0.97381       -0.43804
C          4.62435       -0.29584       -0.09908
Cl         2.37022        1.22764       -0.50802
C          6.02978       -0.45449       -0.05475
Cl         3.56623       -1.62994        0.25496
Cl         6.73324       -2.00154        0.35833
H          7.01240        2.71781       -0.89786
H          7.96973        0.46909       -0.29762
H          4.51634        3.02442       -0.98387
