12
1,2,4,5-TETRAFLUOROBENZENE.gamout	Energy:    -628.7512371
C          6.33549        1.85408       -0.66917
C          6.88371        0.61071       -0.33702
C          4.94186        2.02939       -0.71804
F          7.14471        2.89603       -0.94556
C          4.08141        0.96333       -0.43532
F          4.43828        3.23735       -1.04075
C          4.62953       -0.27987       -0.10322
C          6.02285       -0.45492       -0.05441
F          3.82077       -1.32183        0.17309
F          6.52582       -1.66283        0.26821
H          7.97211        0.47330       -0.29884
H          2.99301        1.10055       -0.47353
