24
1,2,3,5-TETRAMETHYLBENZENE.gamout	Energy:    -389.2399391
C          0.39996        3.34888        0.76322
C          1.90695        3.23188        0.80916
C          2.69154        4.41071        0.90038
C          2.55676        1.97279        0.76824
C          2.03679        5.76947        0.95401
C          4.09226        4.31602        0.94554
C          1.77384        0.68157        0.67761
C          3.96256        1.91903        0.81658
C          4.75157        3.07685        0.90184
C          6.25846        3.00353        0.92022
H         -0.10042        2.36942        0.68286
H          0.00562        3.84929        1.67294
H          0.06927        3.96393       -0.09979
H          1.36379        5.86857        1.83092
H          1.41394        5.96346        0.05550
H          2.79787        6.56832        1.01725
H          4.68762        5.23942        1.01950
H          2.45793       -0.18610        0.65827
H          1.09053        0.55173        1.54139
H          1.15124        0.63926       -0.23942
H          4.45619        0.93577        0.78734
H          6.61048        2.02805        1.30567
H          6.67587        3.12778       -0.10114
H          6.68846        3.80388        1.55257
