24
1,2,4,5-TETRAMETHYLBENZENE.gamout	Energy:    -389.2419193
C          2.07330        3.02595        1.50647
C          0.61072        2.66785        1.60571
C          3.08020        2.04163        1.66340
C          2.46418        4.35299        1.25495
C          2.72583        0.60012        1.93448
C          4.42632        2.43421        1.56104
C          3.81028        4.74529        1.15264
C          4.81675        3.76103        1.30957
C          4.16447        6.18679        0.88171
C          6.27885        4.11942        1.21028
H          0.32434        1.90759        0.84958
H          0.36341        2.23755        2.59834
H         -0.02776        3.55739        1.45234
H          1.68149        5.11887        1.13280
H          3.63484       -0.02118        2.03491
H          2.13568        0.49329        2.86837
H          2.10871        0.17232        1.11738
H          5.20915        1.66849        1.68314
H          4.75528        6.29385       -0.05179
H          3.25525        6.80808        0.78062
H          4.78091        6.61464        1.69932
H          6.56452        4.87910        1.96718
H          6.91829        3.23007        1.36253
H          6.52431        4.55056        0.21772
