14
1,2-DICHLOROBUTANE.gamout	Energy:   -1077.3548084
C          2.09314        2.37509        1.76839
C          0.72078        1.79980        1.40683
C          3.27102        1.66225        1.11025
Cl         3.44643       -0.04549        1.78444
C          4.62760        2.32585        1.33082
Cl         4.72811        3.90133        0.41781
H          2.15319        3.43773        1.45082
H          2.24444        2.36401        2.86783
H         -0.08293        2.34583        1.93594
H          0.52538        1.88388        0.31892
H          0.64950        0.73143        1.68701
H          3.09456        1.51435        0.02719
H          4.79463        2.56169        2.39766
H          5.44836        1.69414        0.95271
