28
1,2-DIPHENYLETHANE.gamout	Energy:    -541.5515191
C          4.85808        2.14728        2.48685
C          6.01705        1.21213        2.03992
C          7.37668        1.87143        2.15295
C          3.49866        1.48746        2.37405
C          7.92842        2.58976        1.06986
C          8.10905        1.81398        3.35860
C          2.94489        0.77408        3.45935
C          2.76863        1.53926        1.16670
C          9.17233        3.23269        1.18779
C          9.35283        2.45519        3.48123
C          1.70131        0.13044        3.34201
C          1.52520        0.89726        1.04464
C          9.88930        3.16818        2.39497
C          0.98671        0.18919        2.13313
H          4.88655        3.06799        1.86879
H          5.04079        2.46492        3.53385
H          5.98838        0.29137        2.65789
H          5.83428        0.89459        0.99289
H          7.37612        2.63977        0.11837
H          7.69902        1.25190        4.21232
H          3.49537        0.72862        4.41213
H          3.18020        2.09746        0.31118
H          9.58660        3.78325        0.32970
H          9.90919        2.39370        4.42875
H          1.28542       -0.41614        4.20187
H          0.97069        0.95431        0.09575
H         10.86497        3.66767        2.48840
H          0.01131       -0.31091        2.04013
