22
1,2-DIETHOXYETHANE.gamout	Energy:    -387.2272662
O          1.78395        0.26120        0.00355
O         -1.78391       -0.26036        0.00353
C          0.58250       -0.49030        0.00339
C         -0.58285        0.49165        0.00338
C          2.95488       -0.54675        0.00426
C         -2.95538        0.54663        0.00426
C          4.17098        0.36504        0.00445
C         -4.17013       -0.36687        0.00445
H          0.52066       -1.14666       -0.89703
H          0.52047       -1.14655        0.90389
H         -0.52109        1.14800       -0.89705
H         -0.52093        1.14790        0.90388
H          2.95617       -1.21071        0.90283
H          2.95688       -1.21148       -0.89372
H         -2.95746        1.21055        0.90284
H         -2.95818        1.21135       -0.89372
H          5.10432       -0.23076        0.00518
H          4.16899        1.01212       -0.89359
H          4.16790        1.01276        0.90200
H         -5.10450        0.22728        0.00521
H         -4.16689       -1.01396       -0.89356
H         -4.16572       -1.01458        0.90200
