8
1,2-DICHLOROETHANE.gamout	Energy:    -998.7800343
C          2.38271        0.75016        0.82960
C          1.50924        1.85855        1.39040
Cl        -0.04457        1.13564        2.00197
Cl         3.93416        1.47429        0.21369
H          1.89969        0.23880       -0.02177
H          2.65414        0.00977        1.60308
H          1.24050        2.60055        0.61753
H          1.99079        2.36782        2.24382
