13
1,2-EPOXYBUTANE.gamout	Energy:    -232.2648145
C          1.80799        2.06009        1.00971
C          1.03063        0.92409        1.69176
C          3.28592        1.75766        0.89050
C          4.26953        2.22323        1.89015
O          4.16656        2.86408        0.60581
H          1.39944        2.23930       -0.00733
H          1.68737        3.01089        1.56804
H          1.41500        0.73163        2.71316
H         -0.04330        1.17645        1.77446
H          1.10931       -0.02172        1.11848
H          3.53852        0.84056        0.32289
H          5.19933        1.65275        2.05944
H          3.92046        2.82918        2.74561
