8
1,2-DIFLUOROTETRACHLOROETHANE.gamout	Energy:   -2116.1036357
Cl         0.01394        0.96735       -0.05461
C          1.51793        1.94093       -0.01112
Cl         1.14577        3.68468       -0.07755
C          2.35666        1.57147        1.27804
F          2.26839        1.60961       -1.08923
Cl         3.93933        2.41318        1.23483
F          2.58830        0.23674        1.23689
Cl         1.46998        1.96898        2.77672
