13
1,2-PROPYLENE_GLYCOL.gamout	Energy:    -269.3938487
C          0.69692        2.27028        1.54413
O         -0.23884        1.89519        2.55607
C          1.93466        1.36936        1.67172
C          1.63501       -0.08927        1.35324
O          2.94455        1.80640        0.74851
H          0.26880        2.15149        0.52196
H          1.01010        3.33448        1.66451
H         -1.02803        2.45833        2.49044
H          2.30802        1.44948        2.71916
H          0.82166       -0.46151        2.00325
H          1.32111       -0.18728        0.29492
H          2.53673       -0.70931        1.51210
H          3.26804        2.68285        1.02181
