16
1,2-HEXADIENE.gamout	Energy:    -234.4337336
C          1.13968        0.40196       -0.19959
C          2.32611       -0.09388        0.09372
C          3.51444       -0.59065        0.38555
C          4.40322       -0.14394        1.52848
C          5.75236        0.42915        1.04905
C          6.67804        0.83153        2.20303
H          0.21513       -0.02733        0.22178
H          1.02929        1.26182       -0.88148
H          3.90950       -1.39280       -0.26722
H          4.60092       -1.01394        2.19478
H          3.86730        0.60930        2.14101
H          5.55730        1.30390        0.39410
H          6.25881       -0.32553        0.40944
H          6.21252        1.60834        2.84364
H          7.63653        1.23918        1.82700
H          6.91360       -0.03712        2.85133
