14
1,2-BENZENEDIOL.gamout	Energy:    -382.4409333
O          0.28500        3.10417        0.21184
C          1.65485        3.12118        0.19257
C          2.31499        1.86976        0.10824
C          2.41796        4.29804        0.25131
O          1.52769        0.74997        0.05254
C          3.71805        1.83363        0.08582
C          3.82300        4.25387        0.22809
C          4.47550        3.01646        0.14509
H         -0.04369        4.01812        0.27097
H          1.89734        5.26543        0.31654
H          2.09712       -0.03715       -0.00335
H          4.22193        0.85759        0.02017
H          4.39898        5.18850        0.27534
H          5.57281        2.96305        0.12588
