19
1,2-DIMETHYLCYCLOPENTENE.gamout	Energy:    -273.7718917
C          4.24081        1.96263        3.88943
C          2.76491        1.82006        4.33852
C          2.04078        1.36089        3.08419
C          4.17444        2.10348        2.34802
C          2.82047        1.51784        1.98309
C          2.47458        1.23736        0.55061
C          0.62721        0.86485        3.15836
H          4.76377        2.80705        4.38020
H          4.79601        1.03936        4.15117
H          2.34183        2.78927        4.69317
H          2.64282        1.10760        5.18173
H          5.01187        1.58419        1.83602
H          4.23221        3.16963        2.02452
H          3.18313        0.50612        0.10440
H          1.45185        0.83608        0.42630
H          2.55210        2.15958       -0.06658
H         -0.04344        1.63635        3.59641
H          0.21991        0.58673        2.16889
H          0.55060       -0.02450        3.82071
