8
1,2-DIBROMOETHANE.gamout	Energy:   -5226.8126363
Br         0.00623       -0.03699       -0.00010
C          1.70060        0.99530        0.00012
C          1.36993        2.47109       -0.00013
Br         3.06379        3.50952        0.00010
H          2.25186        0.68840        0.90556
H          2.25217        0.68818       -0.90504
H          0.81865        2.77783       -0.90555
H          0.81835        2.77805        0.90503
