8
1,2-DICHLORO-1,1,2-TRIFLUOROETHANE.gamout	Energy:   -1296.2822301
C         -0.57939        1.28054       -0.11473
C          0.97084        1.27875       -0.07666
F          1.43438        0.08944       -0.55581
F         -1.04583        1.11250       -1.36602
Cl         1.60741        2.62610       -1.07183
H          1.31835        1.42669        0.96401
F         -1.03866        2.45745        0.36809
Cl        -1.19165       -0.05058        0.93161
