22
1,2-DIMETHYLCYCLOHEXENE.gamout	Energy:    -313.0601181
C          1.73626        4.52752        1.97736
C          2.46846        3.21027        1.88945
C          1.93346        2.00597        2.22824
C          3.89610        3.34084        1.38836
C          0.51181        1.79680        2.68969
C          2.74329        0.72270        2.15998
C          4.54136        2.01316        0.97459
C          4.25472        0.93837        2.02563
H          2.33272        5.26286        2.55995
H          0.74536        4.45084        2.45543
H          1.59758        4.97242        0.96815
H          4.50960        3.82936        2.18183
H          3.91015        4.05413        0.53611
H          0.02118        1.00628        2.08122
H         -0.11479        2.70227        2.62492
H          0.48581        1.43705        3.74132
H          2.37061        0.11046        1.30510
H          2.52586        0.11368        3.06424
H          5.63203        2.14682        0.82933
H          4.12627        1.68756       -0.00397
H          4.75500       -0.01558        1.76459
H          4.67316        1.26181        3.00325
