14
1,2-DICHLORO-4-NITROBENZENE.gamout	Energy:   -1355.4883267
C          6.29797        1.88855       -0.67797
C          6.81306        0.62779       -0.34163
C          4.90932        2.05267       -0.72399
C          4.04972        0.97340       -0.43789
C          4.58940       -0.29151       -0.10013
Cl         2.32896        1.22502       -0.50749
Cl         3.55398       -1.65062        0.26067
C          5.98058       -0.46168       -0.05273
N          8.28246        0.43523       -0.28808
O          8.70423       -0.68711        0.01157
O          8.99241        1.41310       -0.54759
H          6.98558        2.71583       -0.89692
H          4.47143        3.02593       -0.98404
H          6.42324       -1.43076        0.20598
