8
1,2-DIBROMOCHLOROTRIFLUOROETHANE.gamout	Energy:   -5983.8046382
Br        19.74736       39.81264       -0.85017
C         19.99713       38.09683        0.06114
C         21.45836       37.52493       -0.06109
F         19.69798       38.23722        1.36943
F         19.14651       37.18788       -0.46342
Br        22.75832       38.72808        0.77726
Cl        21.87087       37.20940       -1.76590
F         21.46077       36.34924        0.61701
