11
1,2-DIBROMOPROPANE.gamout	Energy:   -5266.0975841
Br        -1.97374        0.12133        0.04365
C         -0.56136       -1.15234       -0.47211
C          0.70705       -1.03664        0.35484
C          1.66628       -2.19408        0.08555
Br         1.64073        0.68330       -0.03413
H         -1.00392       -2.15609       -0.32487
H         -0.36726       -0.99151       -1.54755
H          0.46367       -0.96127        1.43054
H          1.96192       -2.22999       -0.98044
H          2.58168       -2.08800        0.69487
H          1.17963       -3.15564        0.34993
