21
1,2-EPOXY-3-PHENOXYPROPANE.gamout	Energy:    -499.0324522
O          2.81305       -4.15449        0.50772
O          0.49058       -1.35226        0.05614
C          2.24207       -2.93823        0.00183
C          3.28202       -2.90273        1.04796
C          0.77746       -2.72358        0.32146
C         -0.81210       -0.92359        0.05715
C         -1.00925        0.42168       -0.31441
C         -1.91999       -1.72415        0.39837
C         -2.30137        0.95520       -0.34826
C         -3.21292       -1.17086        0.35776
C         -3.41624        0.16448       -0.01519
H          2.52351       -2.68123       -1.03544
H          4.31826       -2.63839        0.77620
H          2.99077       -2.70514        2.09429
H          0.15487       -3.38033       -0.32554
H          0.57426       -2.98266        1.38429
H         -0.13387        1.03016       -0.57709
H         -1.79093       -2.76943        0.70397
H         -2.43720        2.00471       -0.64338
H         -4.06950       -1.80491        0.62594
H         -4.42986        0.58888       -0.04321
