12
1,3,5-TRICHLOROTRIFLUOROBENZENE.gamout	Energy:   -1908.0906931
C          6.34435        1.87465       -0.67443
Cl         7.39922        3.20513       -1.02731
C          6.86834        0.61253       -0.33764
C          4.94646        2.03405       -0.71911
F          8.19296        0.44439       -0.29136
C          6.02552       -0.47729       -0.04852
F          4.43433        3.22606       -1.03784
C          4.07731        0.96365       -0.43533
Cl         6.69067       -2.02384        0.36476
C          4.63200       -0.28642       -0.10143
Cl         2.35824        1.18194       -0.49629
F          3.81941       -1.31108        0.17053
