12
1,3,5-TRIFLUOROBENZENE.gamout	Energy:    -529.5959948
C          6.31962        1.84389       -0.66634
C          6.89135        0.60976       -0.33671
C          4.93767        2.05510       -0.72494
F          7.14302        2.88252       -0.94198
C          6.01050       -0.44113       -0.05819
C          4.61863       -0.30332       -0.09705
F          6.52806       -1.64961        0.26452
C          4.11791        0.95888       -0.43416
F          2.77580        1.12859       -0.48126
H          7.97838        0.47289       -0.29854
H          4.51784        3.03328       -0.98643
H          3.95223       -1.14456        0.12617
