12
1,3,5-TRICHLOROBENZENE.gamout	Energy:   -1610.6089202
C          6.34435        1.87447       -0.67440
C          6.86016        0.61374       -0.33789
C          4.95012        2.02713       -0.71739
C          4.07888        0.96405       -0.43558
Cl         4.27646        3.59237       -1.13564
C          4.63826       -0.27883       -0.10357
C          6.02601       -0.47663       -0.04869
Cl         3.57108       -1.62418        0.25327
Cl         8.59896        0.39277       -0.27666
H          7.01065        2.71544       -0.89740
H          2.99214        1.10089       -0.47371
H          6.44563       -1.45448        0.21249
