16
1,3,5,7-CYCLOOCTATETRAENE.gamout	Energy:    -309.3539267
C         -1.72617       -0.66841       -0.00032
C         -1.71792        0.68898       -0.00032
C         -0.68893       -1.71809        0.00032
C         -0.66822        1.72607        0.00032
C          0.66840       -1.72587        0.00032
C          0.68903        1.71789        0.00032
C          1.71789       -0.68893       -0.00032
C          1.72585        0.66831       -0.00032
H         -2.73795       -1.10075       -0.00084
H         -2.72436        1.13350       -0.00084
H         -1.13293       -2.72463        0.00084
H         -1.10051        2.73786        0.00084
H          1.10094       -2.73749        0.00084
H          1.13352        2.72430        0.00084
H          2.72453       -1.13292       -0.00084
H          2.73758        1.10052       -0.00084
