18
1,3,5-TRINITROBENZENE.gamout	Energy:    -845.2465590
C          6.32216        1.85887       -0.63276
C          6.88714        0.60092       -0.38448
C          4.93756        2.07205       -0.64052
N          7.23352        3.01589       -0.89866
C          6.01290       -0.46576       -0.13934
C          4.61997       -0.31217       -0.13465
N          6.58614       -1.82144        0.12677
C          4.11127        0.96862       -0.38783
N          2.62875        1.16742       -0.38677
O          5.78763       -2.73647        0.33612
O          7.81406       -1.92427        0.11608
O          2.21564        2.30666       -0.61050
O          1.92954        0.17809       -0.16048
O          8.44500        2.79080       -0.88256
O          6.70517        4.10807       -1.11431
H          7.97571        0.45751       -0.38275
H          4.51567        3.06711       -0.83665
H          3.95356       -1.16385        0.06037
