30
1,3,5-TRIETHYLBENZENE.gamout	Energy:    -467.8077232
C          0.96249        6.00860        0.58393
C          1.28808        5.95742        2.08955
C          2.61538        5.28475        2.38979
C          3.81040        6.02947        2.44453
C          5.05444        5.41708        2.69646
C          6.33350        6.23547        2.73321
C          7.02116        6.35886        1.35950
C          5.08315        4.02328        2.90064
C          3.90940        3.24474        2.86091
C          3.96235        1.74336        3.08232
C          4.18507        0.94063        1.78708
C          2.68557        3.89337        2.60360
H          0.91563        4.98929        0.15251
H         -0.01383        6.50033        0.41055
H          1.73584        6.57455        0.02806
H          1.29130        6.98971        2.49727
H          0.47598        5.41786        2.61969
H          3.76973        7.12040        2.30203
H          6.10880        7.25091        3.12013
H          7.04069        5.77712        3.45529
H          6.35441        6.84848        0.62259
H          7.94649        6.96087        1.43822
H          7.29350        5.36281        0.95816
H          6.04395        3.53362        3.12146
H          4.77018        1.50743        3.80567
H          3.01583        1.41332        3.55861
H          4.21315       -0.14550        2.00055
H          3.37024        1.12347        1.05922
H          5.14194        1.21862        1.30275
H          1.75843        3.30033        2.58846
