14
1,3-BENZENEDIOL.gamout	Energy:    -382.4463865
O          0.28067        2.53438        0.24143
C          1.65221        2.53842        0.18410
C          2.29294        1.28907        0.20046
C          2.40142        3.73100        0.11184
C          3.69489        1.23362        0.14380
C          3.80103        3.65489        0.05592
O          4.26974       -0.01264        0.16298
C          4.45943        2.41618        0.07118
H         -0.04705        3.45062        0.22325
H          1.70345        0.36553        0.25716
H          1.89367        4.70733        0.09928
H          4.39157        4.58061       -0.00073
H          5.23796        0.07641        0.12007
H          5.55807        2.36633        0.02714
