11
1,3-DIBROMOPROPANE.gamout	Energy:   -5266.0962436
Br        -2.89407        0.17535       -0.00000
C         -1.25587       -0.92866        0.00001
C         -0.00199       -0.05474        0.00002
C          1.25265       -0.92727        0.00001
Br         2.89498        0.17547       -0.00000
H         -1.32520       -1.56592        0.90070
H         -1.32526       -1.56583       -0.90073
H         -0.00256        0.60283       -0.89086
H         -0.00256        0.60278        0.89095
H          1.32294       -1.56425        0.90073
H          1.32298       -1.56417       -0.90076
