15
1,3-DIAMINOPROPANE.gamout	Energy:    -229.6832213
C         -3.81074        1.35166       -0.15833
C         -2.69727        0.29933       -0.10546
C         -1.29127        0.90876       -0.08273
H         -2.77542       -0.37993       -0.98114
H         -2.85206       -0.33076        0.79671
N         -5.13426        0.71759       -0.10709
H         -3.65501        2.00237       -1.05535
H         -3.72351        2.01723        0.72660
H         -5.29583        0.13733       -0.93844
H         -5.88178        1.41874       -0.09100
N         -0.26435       -0.14072       -0.07657
H         -1.21674        1.61765        0.77989
H         -1.14192        1.51850       -0.99933
H         -0.32038       -0.70385        0.78010
H          0.67812        0.26149       -0.09978
