24
1,3-DIMETHYLNAPHTHALENE.gamout	Energy:    -464.2007138
C          4.65007        3.93327        0.90494
C          4.76632        5.44415        0.90498
C          3.38232        3.25097        0.90494
C          5.82242        3.17579        0.90353
C          3.37517        1.79977        0.90332
C          2.12087        3.92665        0.90659
C          5.83105        1.75206        0.90211
C          4.60712        1.08684        0.90216
C          2.12160        1.11139        0.90307
C          0.92252        3.22588        0.90627
C          7.13790        0.98811        0.89917
C          0.92018        1.80314        0.90428
H          5.33926        5.79435        1.78735
H          5.30755        5.79716        0.00366
H          3.79135        5.95886        0.92258
H          6.79011        3.70307        0.90381
H          2.09355        5.02408        0.90859
H          4.57825       -0.01418        0.90152
H          2.12878        0.01060        0.90160
H         -0.03154        3.77323        0.90766
H          7.21181        0.31363        1.77643
H          7.23095        0.35383       -0.00599
H          8.00745        1.67107        0.92327
H         -0.03410        1.25617        0.90389
