13
1,3-PROPYLENE_GLYCOL.gamout	Energy:    -269.3902433
C          2.67600        0.09028        2.06268
O          1.28031        0.01467        1.74387
C          3.45971       -0.36348        0.83422
C          4.97099       -0.26111        1.00378
O          5.38081       -1.15563        2.04767
H          2.92313       -0.55855        2.93084
H          2.96417        1.13625        2.32614
H          0.76186        0.22903        2.53761
H          3.15803        0.26014       -0.03286
H          3.18543       -1.41048        0.59173
H          5.46721       -0.52409        0.04259
H          5.25879        0.78768        1.25468
H          6.34711       -1.11202        2.14247
