26
1,3-DIPHENYLTRIAZENE.gamout	Energy:    -627.6939070
C          6.99667        1.75083       -0.58578
C          7.18929        0.40260       -0.23713
C          5.68738        2.24972       -0.74031
C         -2.53452       -0.76424       -0.29912
C         -2.01781       -2.01516        0.08137
C         -1.64588        0.29571       -0.55826
C          4.57781        1.41710       -0.55131
C          0.25255       -1.13749       -0.06037
N          1.62583       -1.37179        0.07102
C         -0.25955        0.12321       -0.44347
C         -0.63443       -2.20698        0.20194
C          6.08474       -0.43994       -0.04472
C          4.77024        0.05703       -0.20064
N          3.73610       -0.87917        0.01678
N          2.55251       -0.43869       -0.15172
H          7.86160        2.41322       -0.73647
H          8.20741        0.00452       -0.11373
H          5.53327        3.30492       -1.01211
H         -3.61959       -0.61644       -0.39299
H         -2.69726       -2.85512        0.28795
H         -2.03756        1.27940       -0.85691
H          3.55668        1.80249       -0.67032
H          1.97309       -2.30388        0.34230
H          0.43433        0.94823       -0.64579
H         -0.23390       -3.18818        0.50031
H          6.21134       -1.49738        0.22876
