14
1,3-CYCLOHEXADIENE.gamout	Energy:    -233.2558022
C         -0.12954       -1.42543       -0.05763
C         -1.26355       -0.68191       -0.10518
C         -1.21359        0.76785        0.10503
C         -0.03062        1.43062        0.05787
C          1.24552        0.68307       -0.25575
C          1.19530       -0.76752        0.25550
H         -0.17224       -2.51858       -0.17547
H         -2.23754       -1.16200       -0.28157
H         -2.15196        1.31421        0.28202
H          0.00241        2.52387        0.17731
H          1.39418        0.68685       -1.36309
H          2.12473        1.20810        0.16736
H          1.34360       -0.78094        1.36285
H          2.03629       -1.35202       -0.16715
