15
1,3-PROPANEDIAMINE.gamout	Energy:    -229.6831002
N          2.50112        0.33047        0.01415
N         -2.52882        0.30549        0.00767
C          0.02767        0.35848       -0.01249
C          1.29415       -0.50635       -0.02798
C         -1.27721       -0.45992        0.00908
H          0.06834        1.03141        0.87029
H          0.02478        1.01583       -0.91146
H          1.25432       -1.19594       -0.90797
H          1.30398       -1.15292        0.87541
H         -1.28785       -1.11720        0.90486
H         -1.30366       -1.14340       -0.86648
H          2.55927        0.92939       -0.81768
H          3.35074       -0.24312        0.02028
H         -2.59639        0.90029       -0.82594
H         -2.58097        0.93149        0.81923
