22
1,3-DIMETHYL-2-ETHENYLBENZENE.gamout	Energy:    -388.0030219
C          0.96217        4.95208        1.31006
C          1.47000        3.78854        1.77255
C          2.86856        3.30633        1.70803
C          3.99166        4.13653        1.99025
C          3.07469        1.93254        1.38265
C          3.84316        5.58691        2.38705
C          5.28576        3.58100        1.92711
C          1.90350        1.02674        1.07990
C          4.38191        1.42332        1.31807
C          5.48914        2.23848        1.58780
H          1.57844        5.69897        0.79170
H         -0.10975        5.17587        1.41182
H          0.75594        3.08127        2.22714
H          3.76714        6.25389        1.50299
H          2.93306        5.75293        2.99389
H          4.72188        5.92057        2.96886
H          6.14902        4.22134        2.15845
H          1.25583        0.88118        1.97048
H          1.25933        1.44743        0.28188
H          2.25179        0.03018        0.75401
H          4.52685        0.36768        1.05107
H          6.50862        1.82437        1.54136
