10
1,3-PROPYLENE_OXIDE.gamout	Energy:    -192.9759883
C          2.06885        2.06387        0.90254
C          0.52265        2.03727        0.94531
C          1.95415        0.52062        0.90596
O          0.50162        0.58313        0.94515
H          2.55864        2.50291        1.79048
H          2.50863        2.50260       -0.01134
H          0.00354        2.45454        0.05546
H          0.05366        2.45359        1.86304
H          2.36609        0.00358        1.79949
H          2.31732        0.00288       -0.00810
