13
1,3-PROPANEDIOL.gamout	Energy:    -269.3891069
C         -1.80271        4.80889       -0.94603
C         -0.42949        4.20267       -0.67060
C          0.68755        5.24303       -0.69389
H         -0.21520        3.42046       -1.42635
H         -0.44137        3.70451        0.31985
O         -2.77084        3.75708       -0.89569
H         -1.80753        5.30410       -1.94603
H         -2.03224        5.59436       -0.18703
H         -3.65212        4.12857       -1.06878
O          1.92247        4.57224       -0.42624
H          0.49058        6.02988        0.07227
H          0.71941        5.74763       -1.68857
H          2.64552        5.22167       -0.43676
