16
1,3-BUTANEDIOL.gamout	Energy:    -308.6789013
C         -2.34413       -1.23573        0.31704
C         -2.19155        0.14710       -0.30954
H         -0.94502        1.01144        1.24692
O          1.45561        1.11952        0.03441
H          2.30005        0.69955       -0.20181
H         -3.29283       -1.69937       -0.01192
H         -1.51299       -1.90193        0.01674
H         -2.35792       -1.15889        1.42218
C         -0.92423        0.89280        0.14398
O         -3.37309        0.88323        0.04834
H         -3.29088        1.79255       -0.28967
C          0.38323        0.22361       -0.27710
H         -0.93080        1.91457       -0.29229
H          0.35975        0.00083       -1.37064
H          0.51241       -0.74405        0.25870
H         -2.15523        0.03182       -1.42083
