14
1,4-CYCLOHEXADIENE.gamout	Energy:    -233.2554001
C          1.72110        3.47319        0.89968
C          1.08248        2.10827        0.87745
C          1.78386        0.95803        0.86956
C          3.29035        0.90146        0.88141
C          3.92906        2.26638        0.88509
C          3.22756        3.41647        0.89335
H          1.36591        4.04583        1.78968
H          1.35900        4.07807        0.03445
H         -0.01867        2.06815        0.86746
H          1.24431       -0.00238        0.85314
H          3.65597        0.31137        0.00750
H          3.64194        0.31378        1.76296
H          5.03016        2.30672        0.88062
H          3.76715        4.37691        0.89555
