12
1,4-DICHLORO-TRANS-2-BUTENE.gamout	Energy:   -1076.1226054
C          0.55584        0.17491        0.33997
C         -0.55591       -0.17446       -0.34040
C         -1.87591        0.49582       -0.16582
C          1.87569       -0.49554        0.16568
Cl        -3.13053       -0.68133        0.48300
Cl         3.13083        0.68122       -0.48280
H          0.51276        0.99658        1.07464
H         -0.51277       -0.99614       -1.07505
H         -1.83327        1.33405        0.55272
H         -2.29258        0.85431       -1.12658
H          2.29192       -0.85401        1.12661
H          1.83320       -1.33385       -0.55278
