14
1,4-DIBROMOBUTANE.gamout	Energy:   -5305.3834500
Br        87.01488       -0.09195        0.00011
C         85.29713        0.88985       -0.00014
C         85.50446        2.39943        0.00006
C         84.14819        3.14605       -0.00012
C         84.35624        4.65567        0.00010
Br        82.63922        5.64327       -0.00009
H         84.76064        0.54241       -0.90184
H         84.76031        0.54218        0.90127
H         86.09611        2.69520        0.89094
H         86.09649        2.69533       -0.89054
H         83.55630        2.85053       -0.89096
H         83.55598        2.85029        0.89044
H         84.89294        5.00277        0.90177
H         84.89327        5.00306       -0.90127
