24
1,4-DIMETHYLCYCLOHEXANE.gamout	Energy:    -314.2846814
C         -0.25000       -1.30265        0.65498
C         -1.38359       -0.59077       -0.11153
C         -1.14105        0.93210       -0.11436
C          0.24999        1.30265       -0.65497
C          1.38360        0.59076        0.11152
C          1.14105       -0.93210        0.11438
H         -0.31468       -1.02336        1.73096
H         -0.39698       -2.40196        0.61078
H         -1.33656       -0.93947       -1.17004
C         -2.76839       -0.94933        0.44468
H         -1.93099        1.43952       -0.70647
H         -1.24232        1.31253        0.92742
H          0.31467        1.02340       -1.73095
H          0.39699        2.40196       -0.61074
C          2.76839        0.94933       -0.44471
H          1.33659        0.93948        1.17003
H          1.93098       -1.43950        0.70652
H          1.24235       -1.31256       -0.92738
H         -2.86386       -0.61702        1.49945
H         -2.94629       -2.04290        0.41909
H         -3.57678       -0.46161       -0.13581
H          2.94628        2.04290       -0.41910
H          2.86386        0.61703       -1.49949
H          3.57679        0.46161        0.13578
