22
1,4-DIMETHYLCYCLOHEXENE.gamout	Energy:    -313.0578281
C          3.70372        1.72244        1.78557
C          2.50731        1.05275        1.08823
C          1.16007        1.66930        1.52443
C          3.48628        1.93208        3.27231
C          2.25632        1.80931        3.82473
C          4.70840        2.28059        4.08434
C          0.99506        1.49509        3.05262
C          1.03295        3.14532        1.10552
H          4.62086        1.11306        1.63303
H          3.93560        2.70398        1.31054
H          2.62220        1.11605       -0.01338
H          2.50111       -0.02783        1.34514
H          0.34838        1.10193        1.02083
H          2.15225        1.95148        4.91413
H          4.45922        2.46915        5.14575
H          5.21157        3.18663        3.68200
H          5.46156        1.46403        4.04493
H          0.66774        0.45545        3.28368
H          0.17094        2.14480        3.42014
H          1.76881        3.77963        1.63797
H          1.19763        3.26991        0.01641
H          0.02452        3.53931        1.34179
