14
1,4-DICHLOROBUTANE.gamout	Energy:   -1077.3532243
C          1.97795        0.98703        1.27671
C          0.90991        1.80071        2.01995
C          0.94292        3.30449        1.78792
C          3.42135        1.39559        1.53400
Cl         0.70248        3.74612        0.02849
Cl         3.88894        1.24782        3.29700
H          1.85047       -0.08384        1.53017
H          1.81468        1.07893        0.18105
H         -0.09035        1.41069        1.74677
H          1.02578        1.64602        3.11457
H          0.13096        3.81172        2.33698
H          1.90486        3.75999        2.08707
H          4.12387        0.74751        0.98215
H          3.62512        2.44614        1.25595
