22
1,4-DIMETHYL-2-ETHENYLBENZENE.gamout	Energy:    -388.0058692
C          0.58077        1.80650        3.99363
C          1.90619        1.54685        4.11029
C          3.02021        1.61833        3.14629
C          2.92967        2.02679        1.77870
C          4.29516        1.24420        3.65204
C          1.63648        2.44728        1.12402
C          4.11190        2.03526        1.01006
C          5.46847        1.25316        2.88139
C          5.35550        1.65953        1.53567
C          6.80288        0.84701        3.46660
H          0.09046        2.14397        3.07480
H         -0.06826        1.68185        4.87184
H          2.23892        1.21894        5.11116
H          4.36042        0.93495        4.70745
H          1.18530        3.32279        1.63561
H          1.80643        2.72319        0.06693
H          0.88184        1.63376        1.14434
H          4.04950        2.34967       -0.04316
H          6.24879        1.68345        0.89276
H          6.70104        0.51223        4.51565
H          7.26028        0.01804        2.88865
H          7.52334        1.69065        3.44772
