16
1,4-BUTANEDIOL.gamout	Energy:    -308.6755240
C          1.63916        0.45449        2.58113
C          1.59794        1.47878        1.44855
O          0.52228        2.39004        1.70343
C          2.76378       -0.57711        2.41026
C          2.80487       -1.60133        3.54275
O          3.88055       -2.51254        3.28762
H          0.65172       -0.05190        2.62640
H          1.75773        1.00223        3.54007
H          1.45135        0.95873        0.47261
H          2.57097        2.02166        1.39367
H          0.48507        3.04794        0.98883
H          3.75119       -0.07070        2.36500
H          2.64519       -1.12486        1.45135
H          1.83195       -2.14438        3.59769
H          2.95164       -1.08160        4.51883
H          3.91789       -3.17064        4.00203
