13
1,4-PENTADIENE.gamout	Energy:    -195.1565197
C          0.83678        1.58354        1.44530
C          1.11386        1.20648        2.88355
C          2.54223        0.76633        3.11498
C          0.33721        2.76241        1.03423
C          3.38866        1.31576        4.00374
H          1.06740        0.80861        0.69178
H          0.43961        0.35955        3.15670
H          0.85807        2.04938        3.55761
H          2.89099       -0.07969        2.49538
H          0.15233        2.96667       -0.03046
H          0.09708        3.56646        1.74805
H          4.41463        0.93943        4.12746
H          3.08556        2.16328        4.63885
