12
1,4-DICHLORO-CIS-2-BUTENE.gamout	Energy:   -1076.1200779
C          1.47526        0.64365        0.50519
C         -1.47525        0.64373       -0.50521
C         -0.64525       -0.55792       -0.20369
C          0.64478       -0.55789        0.20387
Cl         2.87749        0.79832       -0.67755
Cl        -2.87732        0.79821        0.67747
H          0.92125        1.59539        0.44644
H          1.94916        0.56568        1.50184
H         -0.92107        1.59534       -0.44612
H         -1.94907        0.56617       -1.50198
H         -1.14672       -1.52866       -0.34687
H          1.14602       -1.52869        0.34734
