17
1,5-DICHLOROPENTANE.gamout	Energy:   -1116.6378195
Cl        -0.02595       -0.09706       -0.00009
C          1.54285        0.83182        0.00011
C          1.31135        2.33819       -0.00013
C          2.64060        3.11668        0.00009
C          2.42315        4.64093       -0.00014
C          3.74496        5.40024        0.00011
Cl         3.48699        7.20507       -0.00008
H          2.09416        0.49854        0.89932
H          2.09455        0.49831       -0.89877
H          0.71157        2.61791       -0.89039
H          0.71117        2.61812        0.88980
H          3.24025        2.82561        0.88995
H          3.24071        2.82539       -0.88940
H          1.83184        4.93796       -0.89044
H          1.83139        4.93816        0.88980
H          4.34952        5.17753        0.89943
H          4.34995        5.17738       -0.89889
