19
1,5-DIMETHYLCYCLOPENTENE.gamout	Energy:    -273.7662654
C          0.54017        2.19565        2.97967
C          1.95302        2.65904        2.57087
C          2.83251        1.52966        2.03806
C          2.78098        3.25118        3.75766
C          2.42259        0.71630        0.84437
C          3.97108        1.40303        2.75516
C          4.08579        2.40647        3.87776
H         -0.04324        3.04085        3.39586
H          0.59595        1.40227        3.75231
H         -0.02656        1.79394        2.11677
H          1.83083        3.42302        1.76884
H          2.19221        3.21707        4.69599
H          3.01386        4.31911        3.58093
H          3.19764       -0.02083        0.56187
H          2.22970        1.36974       -0.03380
H          1.47834        0.16246        1.03144
H          4.74842        0.65228        2.54373
H          4.17455        1.90789        4.86773
H          4.99914        3.03186        3.77516
