22
1,5-NAPHTHALENE_DIISOCYANATE.gamout	Energy:    -720.3960951
C          1.35135        1.31898       -0.02695
C          2.50250        0.52837        0.00669
C          2.39700       -0.88273        0.07022
C          1.15429       -1.50291        0.10000
C         -0.03755       -0.72399        0.06666
C         -1.34497       -1.32685        0.09535
C         -2.49613       -0.53623        0.06176
C         -2.39060        0.87486       -0.00178
C         -1.14788        1.49504       -0.03157
C          0.04392        0.71608        0.00176
N         -1.41410       -2.71820        0.15696
C         -2.19566       -3.64991        0.19755
O         -2.84900       -4.63691        0.24048
N          1.42043        2.71034       -0.08858
C          2.20191        3.64212       -0.12910
O          2.85515        4.62918       -0.17213
H          3.48944        1.01139       -0.01606
H          3.31432       -1.48855        0.09627
H          1.07238       -2.59641        0.14951
H         -3.48307       -1.01923        0.08451
H         -3.30791        1.48072       -0.02782
H         -1.06597        2.58853       -0.08109
