20
1,5-CYCLOOCTADIENE.gamout	Energy:    -311.8116159
C          4.28500        2.23589        1.88255
C          2.14472        1.68748        4.13008
C          3.25361        2.33143        1.01464
C          1.17939        2.27246        3.38725
C          1.96012        1.54133        0.99602
C          0.85989        2.12442        1.91710
H          3.34567        3.10082        0.22868
H          0.51685        2.97854        3.91781
H          1.56396        1.54066       -0.04002
H          2.13932        0.47937        1.24281
H         -0.06612        1.51370        1.80526
H          0.57631        3.12978        1.53512
C          4.46359        1.33837        3.08559
C          3.19549        0.68643        3.69103
H          2.19767        1.99075        5.19000
H          5.13450        2.91868        1.70632
H          4.96322        1.93864        3.87752
H          5.19812        0.53730        2.83851
H          3.51117        0.09843        4.57698
H          2.77168       -0.04952        2.98418
