16
1,5-HEXADIENE.gamout	Energy:    -234.4425668
C          2.13281        0.64113        3.39080
C          1.23797        1.82828        3.63406
C          0.66330        2.13804        4.81100
C          3.52231        1.01462        2.80895
C          3.46085        1.59150        1.41879
C          3.95509        2.78425        1.03875
H          1.63336       -0.05548        2.67929
H          2.26759        0.07917        4.33790
H          1.06016        2.48766        2.76569
H          0.01992        3.02332        4.92006
H          0.81446        1.51550        5.70770
H          4.13686        0.08729        2.78396
H          4.03718        1.72188        3.49130
H          2.96643        0.95660        0.65987
H          3.87994        3.13155       -0.00205
H          4.45555        3.45451        1.75570
