22
1,5-DIMETHYLCYCLOHEXENE.gamout	Energy:    -313.0600900
C         -7.68476       -0.40843        0.53047
C         -6.28416       -0.28210       -0.10158
C         -8.65548        0.56383       -0.16422
C         -8.18957       -1.85724        0.49868
C         -5.83251        1.14863       -0.33189
C         -6.70763        2.17903       -0.28191
C         -4.36589        1.34155       -0.62563
C         -8.18737        2.02229       -0.02250
H         -7.59920       -0.09184        1.59548
H         -6.26313       -0.82875       -1.07517
H         -5.53685       -0.80346        0.53681
H         -9.67865        0.44631        0.24840
H         -8.71422        0.29764       -1.24289
H         -8.31669       -2.20420       -0.54795
H         -7.47920       -2.54676        0.99749
H         -9.16919       -1.95617        1.00753
H         -6.32991        3.20341       -0.44081
H         -4.11643        2.40301       -0.81357
H         -3.73876        0.98201        0.21884
H         -4.05818        0.75142       -1.51623
H         -8.42798        2.39945        0.99908
H         -8.75806        2.67734       -0.71518
