19
1,5_DIMETHYL_2_PYRROLIDINONE.gamout	Energy:    -365.0190796
C          0.10593        2.05700       -0.16814
N          0.03557        0.61538       -0.05398
C          1.17430       -0.15851        0.05718
C          0.75317       -1.62413       -0.09148
C         -0.78183       -1.59742        0.00729
C         -1.18121       -0.14512       -0.36639
C         -2.42309        0.36230        0.36983
O          2.31603        0.27141        0.21677
H          1.16407        2.34779       -0.03525
H         -0.24352        2.39603       -1.16740
H         -0.50653        2.56123        0.60600
H          1.10810       -1.97272       -1.08412
H          1.25418       -2.24944        0.66934
H         -1.28228       -2.33440       -0.64792
H         -1.10331       -1.80633        1.04780
H         -1.37450       -0.07645       -1.46570
H         -2.25894        0.35204        1.46573
H         -2.69629        1.39040        0.06341
H         -3.28586       -0.29370        0.14167
