20
1,6-DIBROMOHEXANE.gamout	Energy:   -5383.9548244
Br        -0.03093       -0.12832       -0.00011
C          1.64374        0.93314        0.00009
C          1.37033        2.43104       -0.00006
C          2.67927        3.24434        0.00013
C          2.43690        4.76197        0.00002
Br         5.14712        8.13462        0.00018
C          3.47246        7.07315        0.00002
C          3.74585        5.57526        0.00017
H          2.19524        0.60944        0.90147
H          2.19555        0.60929       -0.90106
H          0.76373        2.69948       -0.88961
H          0.76344        2.69957        0.88928
H          3.28803        2.97012        0.88907
H          3.28835        2.97006       -0.88857
H          1.82814        5.03617       -0.88892
H          1.82786        5.03628        0.88873
H          2.92066        7.39700        0.90118
H          2.92094        7.39687       -0.90135
H          4.35244        5.30683        0.88974
H          4.35273        5.30669       -0.88916
