22
1,6-HEXANEDIOL.gamout	Energy:    -387.2461231
O         -0.07847        9.02742       -0.00009
C          1.16181        8.31198        0.00011
C          2.30284        9.32583       -0.00010
C          3.69095        8.66887        0.00009
C          4.84232        9.68685       -0.00012
C          6.23043        9.02989        0.00009
C          7.37147       10.04372       -0.00011
O          8.61173        9.32825        0.00012
H         -0.81307        8.39078       -0.00001
H          1.24150        7.65600        0.89888
H          1.24155        7.65557       -0.89833
H          2.19076        9.98081       -0.88991
H          2.19071        9.98124        0.88939
H          3.79100        8.00742        0.88854
H          3.79105        8.00694       -0.88799
H          4.74227       10.34829       -0.88857
H          4.74218       10.34879        0.88794
H          6.34246        8.37487        0.88988
H          6.34254        8.37447       -0.88940
H          7.29179       10.69969       -0.89888
H          7.29170       10.70014        0.89833
H          9.34635        9.96487        0.00003
