19
1,6-HEPTADIENE.gamout	Energy:    -273.7261714
C          3.63291        1.41430        3.49195
C          3.52756        0.75579        2.10741
C          3.05788        1.70938        0.98261
C          4.76899        2.38801        3.70389
C          1.64464        2.19885        1.16811
C          5.82238        2.60682        2.89482
C          1.25382        3.48707        1.17809
H          2.67773        1.93568        3.72540
H          3.71523        0.62264        4.27141
H          4.50217        0.30518        1.82663
H          2.81391       -0.09276        2.16872
H          3.12276        1.15865        0.01777
H          3.74328        2.57689        0.90265
H          4.71335        2.96361        4.64541
H          0.87761        1.41294        1.30251
H          6.60283        3.33247        3.16591
H          5.95809        2.07613        1.94008
H          1.97815        4.30754        1.05211
H          0.19783        3.76580        1.30725
