22
1,7-OCTADIENE.gamout	Energy:    -313.0078653
C         -0.15430        0.07941       -0.00523
C          1.05339        0.65777       -0.13495
C          2.38668       -0.06380       -0.09373
H          2.40366       -0.85312       -0.87780
H          2.47915       -0.61072        0.87071
C          3.60141        0.85902       -0.27374
H          3.58539        1.64405        0.51445
H          3.50883        1.39929       -1.24168
C          4.94455        0.11973       -0.22983
H          4.96057       -0.66533       -1.01800
H          5.03715       -0.42052        0.73812
C          6.15927        1.04253       -0.40987
H          6.14232        1.83187        0.37418
H          6.06681        1.58942       -1.37433
C          7.49255        0.32093       -0.36864
C          8.70026        0.89923       -0.49839
H         -0.26514       -1.00648        0.14658
H         -1.07937        0.67233       -0.04589
H          1.09440        1.75205       -0.28531
H          7.45149       -0.77334       -0.21825
H          8.81116        1.98510       -0.65025
H          9.62529        0.30627       -0.45771
