29
1,9-DIBROMONONANE.gamout	Energy:   -5501.8108842
C        103.97143       10.04787        0.00094
C        102.66668        9.23680        0.00039
C        102.89743        7.71916        0.00097
C        103.75036       11.56786        0.00017
C        101.60143        6.89278        0.00016
C        105.06887       12.36617        0.00053
C        101.87283        5.37649        0.00058
C        104.81243       13.86659       -0.00039
C        100.58725        4.56334       -0.00042
Br       106.49754       14.91377       -0.00016
Br       100.94859        2.61032       -0.00006
H        104.57773        9.76503        0.88917
H        104.57879        9.76435       -0.88635
H        102.05936        9.51851       -0.88797
H        102.05812        9.51910        0.88770
H        103.50573        7.44076        0.88931
H        103.50699        7.44033       -0.88638
H        103.14535       11.85063       -0.88906
H        103.14425       11.85145        0.88839
H        100.99185        7.16563       -0.88904
H        100.99043        7.16596        0.88829
H        105.67150       12.09000        0.89043
H        105.67247       12.08910       -0.88844
H        102.47965        5.10929        0.89072
H        102.48111        5.10914       -0.88852
H        104.26520       14.19623       -0.90224
H        104.26428       14.19721        0.90055
H         99.97251        4.74174       -0.90146
H         99.97099        4.74182        0.89956
