26
1-(3-METHOXYPROPOXY)PROPAN-1-OL.gamout	Energy:    -501.6899122
O         -0.91495       -0.34204        0.24609
O          3.87539       -0.45560        0.24256
O         -2.44060        1.45764        0.27714
C          1.48088       -0.37602        0.24320
C          0.23003        0.36385       -0.22254
C         -2.15388        0.15467       -0.22650
C         -3.23974       -0.80536        0.25127
C          2.76676        0.29958       -0.22430
C         -4.63752       -0.45543       -0.26896
C          5.12008        0.09124       -0.14948
H          1.47711       -0.43248        1.34965
H          1.45373       -1.41626       -0.13795
H          0.20164        0.42742       -1.33921
H          0.22753        1.40559        0.17544
H         -2.11844        0.19969       -1.34561
H         -2.94201       -1.82333       -0.06878
H         -3.21524       -0.79553        1.35996
H          2.79309        0.36521       -1.34108
H          2.82739        1.34641        0.16552
H         -4.94385        0.55241        0.06904
H         -4.67149       -0.47077       -1.37766
H         -5.38532       -1.18403        0.09817
H         -2.07670        2.13025       -0.32281
H          5.91268       -0.56134        0.26009
H          5.25834        1.12489        0.24800
H          5.21826        0.12939       -1.26024
