25
1-AMINOHEPTANE.gamout	Energy:    -331.5093205
C         70.00670       10.03342       -0.00880
C         68.69152        9.23890       -0.00663
C         68.88844        7.71642        0.00032
C         69.80579       11.55528       -0.01242
C         67.57104        6.92400        0.00242
C         71.12162       12.34286       -0.02546
C         67.76826        5.40332        0.00899
N         70.87237       13.78950        0.01495
H         70.60884        9.74194        0.87995
H         70.61044        9.73476       -0.89416
H         68.08866        9.52856       -0.89554
H         68.08682        9.53714        0.87790
H         69.49113        7.42623        0.88936
H         69.49362        7.41809       -0.88438
H         69.20179       11.84428       -0.90173
H         69.21595       11.86877        0.87450
H         66.97165        7.22073       -0.88544
H         66.97012        7.22855        0.88653
H         71.70993       12.07599        0.87788
H         71.72999       12.01169       -0.90412
H         66.79910        4.86676        0.01020
H         68.33440        5.07606        0.90468
H         68.33630        5.06865       -0.88280
H         71.74904       14.31891        0.06182
H         70.38570       14.10191       -0.83311
