29
1-BROMONONANE.gamout	Energy:   -2928.2881047
C          3.49153        0.52893        0.00004
C          4.81331       -0.25429        0.00031
C          4.61333       -1.77740        0.00006
C          3.67084        2.05380        0.00023
C          5.93791       -2.56621        0.00022
C          2.34225        2.82557       -0.00012
C          5.68593       -4.06731       -0.00009
C          2.51036        4.35257        0.00004
Br         7.37060       -5.11492        0.00003
C          1.17827        5.11415       -0.00034
H          2.89128        0.22973       -0.88729
H          2.89079        0.22956        0.88697
H          5.41487        0.03979        0.88792
H          5.41534        0.04001       -0.88692
H          4.01065       -2.06724       -0.88831
H          4.01026       -2.06748        0.88809
H          4.26981        2.35519        0.88767
H          4.27034        2.35535       -0.88681
H          6.53845       -2.28553        0.88989
H          6.53881       -2.28524       -0.88913
H          1.74422        2.52114       -0.88747
H          1.74365        2.52101        0.88681
H          5.13776       -4.39772       -0.90108
H          5.13741       -4.39804        0.90057
H          3.11004        4.65224        0.88666
H          3.11060        4.65235       -0.88616
H          1.33582        6.21035       -0.00021
H          0.57341        4.86030       -0.89456
H          0.57280        4.86018        0.89342
