20
1-BROMOHEXANE.gamout	Energy:   -2810.4324290
C         -0.10509        9.98321        0.00015
C          1.24078        9.24801       -0.00008
C          2.45552       10.18901        0.00005
C          3.80228        9.44963       -0.00015
C          5.01119       10.40427        0.00007
C          6.33244        9.64795       -0.00011
Br         7.88733       10.88206        0.00031
H         -0.95380        9.27149        0.00008
H         -0.20992       10.63078        0.89436
H         -0.21005       10.63111       -0.89380
H          1.30087        8.58109       -0.88753
H          1.30097        8.58074        0.88710
H          2.40263       10.85675        0.88821
H          2.40255       10.85709       -0.88786
H          3.85507        8.78360       -0.88945
H          3.85513        8.78315        0.88880
H          4.96457       11.06611        0.88945
H          4.96457       11.06657       -0.88897
H          6.45696        9.02053       -0.90164
H          6.45687        9.01999        0.90106
