18
1-BROMONAPHTHALENE.gamout	Energy:   -2959.1471579
Br        -2.18599       -0.36415       -0.00001
C         -0.50520        0.57081        0.00004
C         -0.53587        1.95851       -0.00052
C          0.68291        2.69036       -0.00023
C          1.90087        2.02771       -0.00001
C          1.95493        0.60127        0.00042
C          3.19988       -0.09938       -0.00013
C          3.24483       -1.48587       -0.00030
C          2.03643       -2.23555       -0.00052
C          0.80615       -1.59196        0.00027
C          0.72330       -0.16700        0.00147
H         -1.49772        2.48815       -0.00100
H          0.64749        3.78958       -0.00036
H          2.84361        2.59438       -0.00027
H          4.13028        0.48841       -0.00031
H          4.21377       -2.00614       -0.00061
H          2.07495       -3.33476       -0.00107
H         -0.12348       -2.17658        0.00079
