14
1-BROMOBUTANE.gamout	Energy:   -2731.8618604
C         -0.09188       -0.06111       -0.04372
C          1.44816        0.00479       -0.04404
C         -0.74424        1.32789       -0.04359
C          2.07428       -1.38286       -0.04253
Br         4.05902       -1.30457       -0.04466
H         -0.43537       -0.63494        0.84382
H         -0.43569       -0.63499       -0.93110
H          1.80146        0.56888        0.84365
H          1.80120        0.56682       -0.93313
H         -0.44260        1.90912        0.85075
H         -1.84882        1.25385       -0.04336
H         -0.44297        1.90913       -0.93806
H          1.80770       -1.96292        0.85944
H          1.80581       -1.96580       -0.94210
