26
1-BROMOOCTANE.gamout	Energy:   -2889.0027724
C         -0.08773       -0.10921        0.00004
C          1.22445        0.68610       -0.00016
C          1.01774        2.20831        0.00013
C          2.32737        3.01179       -0.00007
C          2.10825        4.53138        0.00018
C          3.40959        5.34960       -0.00004
C          3.14778        6.86759        0.00017
C          4.43894        7.67261       -0.00010
Br         4.08927        9.62842        0.00018
H          0.09840       -1.20109       -0.00020
H         -0.69983        0.12709        0.89441
H         -0.70027        0.12739       -0.89395
H          1.83044        0.40158       -0.88774
H          1.83092        0.40129        0.88700
H          0.41259        2.49641        0.88832
H          0.41216        2.49669       -0.88768
H          2.93342        2.72613       -0.88825
H          2.93387        2.72587        0.88771
H          1.50192        4.81422        0.88857
H          1.50151        4.81444       -0.88787
H          4.01820        5.07340       -0.88896
H          4.01864        5.07321        0.88852
H          2.54342        7.14019        0.89035
H          2.54295        7.14034       -0.88966
H          5.05268        7.49073       -0.90110
H          5.05318        7.49055        0.90052
