23
1-BROMOHEPTANE.gamout	Energy:   -2849.7175560
C         16.98144       10.07627       -0.00012
C         18.29132        9.27158        0.00011
C         17.19328       11.59539        0.00017
C         18.07048        7.75229       -0.00015
C         19.37076        6.93241        0.00005
C         19.10762        5.41461       -0.00015
C         20.39823        4.60882        0.00007
Br        20.04776        2.65319       -0.00018
H         16.37920        9.78435       -0.88776
H         16.37870        9.78407        0.88710
H         18.89759        9.55745        0.88829
H         18.89804        9.55770       -0.88768
H         16.22859       12.13995       -0.00004
H         17.76241       11.92150        0.89448
H         17.76290       11.92174       -0.89375
H         17.46382        7.46999       -0.88860
H         17.46337        7.46975        0.88791
H         19.97980        7.20784        0.88894
H         19.98019        7.20802       -0.88851
H         18.50292        5.14253       -0.89030
H         18.50250        5.14237        0.88966
H         21.01219        4.79036        0.90101
H         21.01261        4.79053       -0.90055
