12
1-BUTENE.gamout	Energy:    -157.1055602
C          1.31968        2.14891        1.66221
C          0.45494        2.88886        0.94470
C          1.98161        0.87879        1.19746
C          3.51951        0.95515        1.22512
H          1.59005        2.48640        2.68013
H          0.01372        3.81115        1.34940
H          0.15580        2.59549       -0.07451
H          1.65400        0.04121        1.85373
H          1.62803        0.63036        0.17523
H          3.97071       -0.00732        0.91402
H          3.88986        1.74665        0.54435
H          3.88963        1.18787        2.24405
