6
1-CHLORO-2,2-DIFLUOROETHYLENE.gamout	Energy:    -736.3748282
C         32.01932       17.98925        0.00000
C         30.67721       17.99261        0.00000
F         29.95700       19.11303       -0.00000
F         29.89825       16.92171        0.00000
Cl        32.95108       16.52554       -0.00000
H         32.57592       18.93337        0.00000
