18
1-CHLORONAPHTHALENE.gamout	Energy:    -845.1337419
C          5.72187        0.52961        1.93542
C          4.55655        0.44128        1.10494
C          6.86745        1.19971        1.53082
Cl         5.71438       -0.23190        3.52530
C          3.35943       -0.23780        1.48200
C          4.61638        1.08655       -0.19193
C          6.90519        1.82520        0.25547
C          2.26734       -0.28293        0.62584
C          3.47070        1.01669       -1.04280
C          5.80527        1.77078       -0.58755
C          2.32102        0.34875       -0.64735
H          7.73799        1.24276        2.19869
H          3.31510       -0.72639        2.46409
H          7.81806        2.35372       -0.05518
H          1.35404       -0.81174        0.93559
H          3.51973        1.50742       -2.02650
H          5.83559        2.25548       -1.57439
H          1.45007        0.30674       -1.31758
