16
1-CHLORO-2,4-DINITROBENZENE.gamout	Energy:   -1100.3608640
C          6.38105        1.89827       -0.68848
C          6.91249        0.65367       -0.33893
C          4.98596        2.09990       -0.74256
C          6.03375       -0.40586       -0.06278
C          4.64725       -0.24604       -0.12753
N          6.58449       -1.73324        0.30057
C          4.12528        1.01334       -0.45119
N          2.64489        1.13224       -0.46189
Cl         4.41301        3.66190       -1.23292
O          2.15494        2.19821       -0.08807
O          2.01392        0.13426       -0.82108
O          5.77940       -2.63660        0.54289
O          7.81422       -1.84453        0.33569
H          7.04522        2.73836       -0.92866
H          7.99573        0.48769       -0.28374
H          3.97480       -1.08936        0.07308
