23
1-CHLOROHEPTANE.gamout	Energy:    -735.7018979
C         -0.04486       -0.11450        0.00015
C          1.25245        0.70444       -0.00011
C          1.01906        2.22293        0.00009
C          2.31691        3.04451       -0.00014
C          2.08072        4.56253        0.00006
C          3.38754        5.37662       -0.00013
C          3.11519        6.87535        0.00010
Cl         4.65697        7.85374       -0.00017
H          0.16161       -1.20267       -0.00001
H         -0.66156        0.10985        0.89448
H         -0.66201        0.11001       -0.89382
H          1.86331        0.43094       -0.88774
H          1.86382        0.43077        0.88712
H          0.40922        2.50069        0.88838
H          0.40877        2.50087       -0.88784
H          2.92651        2.76821       -0.88841
H          2.92695        2.76802        0.88777
H          1.47191        4.83801        0.88918
H          1.47151        4.83819       -0.88873
H          3.99569        5.11395       -0.89039
H          3.99610        5.11374        0.88978
H          2.55521        7.19353        0.89933
H          2.55473        7.19373       -0.89876
