8
1-CHLORO-1,1-DIFLUOROETHANE.gamout	Energy:    -737.6248664
C          0.95630        0.89661       -0.03726
Cl        -0.21736        2.25186        0.27796
F          2.19525        1.44935       -0.16803
F          0.98814        0.11449        1.07879
C          0.58342        0.09055       -1.26019
H          0.57847        0.74299       -2.15076
H          1.33683       -0.71008       -1.38949
H         -0.41531       -0.35871       -1.12055
