33
1-DECANETHIOL.gamout	Energy:    -792.1634718
S          6.59603       -0.72449        0.26542
C         -0.07907        0.38222        0.12399
C         -1.37769       -0.43712        0.11462
C          1.19098       -0.47805        0.18883
C         -2.64947        0.41828        0.02532
C          2.49251        0.33695        0.16740
C         -3.94634       -0.40319       -0.01128
C          3.75668       -0.53783        0.21061
C         -5.21792        0.45125       -0.12143
C          5.04914        0.27988        0.15799
C         -6.50989       -0.37421       -0.17352
H         -0.09292        1.08963        0.98255
H         -0.04333        1.01617       -0.78972
H         -1.42149       -1.07144        1.02748
H         -1.35357       -1.14411       -0.74432
H          1.16481       -1.10873        1.10455
H          1.19285       -1.18762       -0.66813
H         -2.59638        1.05504       -0.88567
H         -2.68247        1.12369        0.88512
H          2.51069        0.96690       -0.74948
H          2.49969        1.04639        1.02422
H         -4.00687       -1.03940        0.89963
H         -3.90515       -1.10941       -0.87042
H          3.73963       -1.24762       -0.64471
H          3.75684       -1.16256        1.12813
H         -5.26084        1.15527        0.73794
H         -5.14787        1.08797       -1.03015
H          5.11500        0.97061        1.02300
H          5.09285        0.90532       -0.75584
H         -6.62924       -0.99227        0.73957
H         -7.40368        0.27432       -0.25914
H         -6.51072       -1.06189       -1.04388
H          6.41261       -1.41512       -0.89613
