31
1-DECANAL.gamout	Energy:    -468.0071143
C          4.19532        2.23763        3.55873
C          2.86668        2.80292        3.03614
C          4.40468        2.42937        5.06786
C          2.66633        2.60314        1.52569
C          1.33927        3.16437        1.00045
C          7.29348        1.46603        7.57137
C          5.95665        2.04333        7.08530
C          7.51794        1.64293        9.08955
C          5.73672        1.85874        5.57661
O          9.11521       -0.14366        9.41099
C          8.83206        1.03430        9.54928
H          4.25249        1.15277        3.31945
H          5.03826        2.71334        3.01008
H          2.80820        3.88841        3.27326
H          2.02332        2.32666        3.58398
H          3.56454        1.95165        5.61880
H          4.35038        3.51346        5.31121
H          3.51326        3.07690        0.98325
H          2.73000        1.51752        1.29571
H          1.26335        4.25530        1.18526
H          1.23165        3.00061       -0.08966
H          0.47423        2.68199        1.49967
H          8.12764        1.94977        7.01865
H          7.35074        0.38407        7.33423
H          5.12256        1.56127        7.64145
H          5.90512        3.12613        7.33417
H          6.70121        1.12507        9.63931
H          7.48205        2.71524        9.37148
H          6.57529        2.33718        5.02394
H          5.79056        0.77539        5.33140
H          9.57415        1.73730       10.03177
