28
1-DECYNE.gamout	Energy:    -391.5649288
C          7.20026        0.76470        0.93220
C          5.93485        1.63502        0.94804
C          4.63077        0.82418        0.95788
C          8.50077        1.57946        0.92437
C          3.36355        1.69167        0.97398
C          9.76407        0.68704        0.90751
C          2.05969        0.87927        0.98447
C         11.01841        1.44182        0.90039
C          0.79554        1.74838        1.00135
C         12.05639        2.08969        0.89430
H          7.17585        0.09959        0.04069
H          7.19222        0.09126        1.81777
H          5.94193        2.30810        0.06255
H          5.95964        2.30100        1.83852
H          4.62508        0.15120        1.84376
H          4.60717        0.15757        0.06753
H          8.53912        2.23911        1.81610
H          8.52237        2.24905        0.03946
H          3.36858        2.36521        0.08835
H          3.38696        2.35835        1.86447
H          9.73465        0.02231        0.01615
H          9.75142        0.01220        1.79168
H          2.05844        0.20664        1.86950
H          2.03950        0.21345        0.09457
H          0.74923        2.40680        0.11004
H         -0.12318        1.12981        1.00927
H          0.76900        2.40020        1.89831
H         12.97553        2.65626        0.88903
