30
1-DECENE.gamout	Energy:    -392.8171338
C          5.62083       -0.20663       -0.57293
C          4.57810       -0.27715        0.27488
C          3.31200        0.53259        0.18333
C          2.03315       -0.32980        0.15965
C          0.74177        0.49751        0.09491
C         -0.53583       -0.35445        0.07297
C         -1.82835        0.47203        0.01022
C         -3.10712       -0.37782       -0.01427
C         -4.39896        0.45099       -0.07954
C         -5.67484       -0.39933       -0.10750
H          6.51451       -0.83364       -0.43970
H          5.61825        0.48238       -1.43299
H          4.63126       -0.98744        1.12119
H          3.25497        1.21826        1.05994
H          3.34586        1.18193       -0.71714
H          2.07983       -1.02317       -0.70749
H          2.01102       -0.97464        1.06564
H          0.70660        1.18967        0.96541
H          0.76505        1.14645       -0.80837
H         -0.49881       -1.04641       -0.79735
H         -0.55901       -1.00447        0.97558
H         -1.86407        1.16387        0.88088
H         -1.80337        1.12241       -0.89219
H         -3.07012       -1.06911       -0.88549
H         -3.13333       -1.02899        0.88771
H         -4.43149        1.14236        0.79051
H         -4.36587        1.10158       -0.98047
H         -6.58400        0.23150       -0.15718
H         -5.68768       -1.07474       -0.98738
H         -5.75540       -1.03375        0.79868
