39
1-DODECANOL.gamout	Energy:    -547.7889016
C          6.34592       -0.46721       -0.00000
C          5.07771        0.38165       -0.00000
C          3.79265       -0.45842        0.00000
C          2.50995        0.38682        0.00000
C          1.22230       -0.44947        0.00000
C         -0.06281        0.39106        0.00001
C         -1.34882       -0.44807        0.00000
C         -2.63592        0.38936        0.00000
C         -3.92052       -0.45209        0.00000
C         -5.20950        0.38241       -0.00000
C         -6.49271       -0.46266       -0.00001
C         -7.77962        0.37174       -0.00001
O          7.47926        0.40782       -0.00001
H          6.35709       -1.12932        0.89819
H          6.35708       -1.12933       -0.89820
H          5.10001        1.04642        0.88937
H          5.10000        1.04642       -0.88938
H          3.78557       -1.12846       -0.88821
H          3.78558       -1.12846        0.88822
H          2.51245        1.05731        0.88755
H          2.51245        1.05731       -0.88755
H          1.22053       -1.12048       -0.88756
H          1.22053       -1.12048        0.88757
H         -0.06239        1.06196        0.88755
H         -0.06239        1.06196       -0.88753
H         -1.34828       -1.11914       -0.88751
H         -1.34828       -1.11914        0.88751
H         -2.63649        1.06037        0.88749
H         -2.63649        1.06038       -0.88748
H         -3.91793       -1.12321       -0.88751
H         -3.91794       -1.12322        0.88751
H         -5.21218        1.05349        0.88768
H         -5.21218        1.05350       -0.88768
H         -6.48431       -1.13353       -0.88654
H         -6.48431       -1.13353        0.88652
H         -7.83388        1.02576        0.89417
H         -7.83388        1.02577       -0.89418
H         -8.68147       -0.27154       -0.00001
H          8.29327       -0.12386       -0.00001
