22
1-ETHYLCYCLOHEXENE.gamout	Energy:    -313.0571174
C          4.34954        0.97068        2.46349
C          5.77874        1.06369        1.90461
C          6.28784        2.51234        1.95096
C          3.42372        2.05534        1.93781
C          3.91409        3.15467        1.31870
C          1.94609        1.80751        2.16972
C          5.38625        3.42945        1.10661
C          0.97487        2.90494        1.72426
H          4.37319        1.02769        3.57705
H          3.91096       -0.02527        2.23443
H          5.78475        0.70841        0.85107
H          6.45428        0.39011        2.47016
H          7.33745        2.57249        1.59804
H          6.28475        2.86469        3.00526
H          3.21436        3.91393        0.93534
H          1.67475        0.84916        1.66984
H          1.79921        1.60464        3.25593
H          5.60033        4.49562        1.33495
H          5.63038        3.30957        0.02517
H          1.18519        3.86379        2.23855
H          1.03729        3.08506        0.63263
H         -0.06877        2.61902        1.95665
