22
1-ETHYL-3-ETHENYLBENZENE.gamout	Energy:    -388.0053593
C          6.53531        2.61035        1.54604
C          5.20800        2.66845        0.76348
C          4.01172        2.96740        1.64768
C          3.29963        1.92581        2.27514
C          3.60366        4.29479        1.89252
C          2.20400        2.16965        3.13771
C          2.51674        4.56203        2.74526
C          1.51081        1.02227        3.75403
C          1.82203        3.51577        3.36300
C          0.47660        1.05343        4.62330
H          6.50473        1.82182        2.32367
H          6.73763        3.57378        2.05446
H          7.38529        2.39309        0.86881
H          5.28135        3.44386       -0.02669
H          5.04754        1.70226        0.24160
H          3.60146        0.88252        2.08727
H          4.13779        5.12625        1.40755
H          2.20531        5.60218        2.92343
H          1.90386        0.03459        3.45602
H          0.97096        3.74277        4.02013
H          0.02534        1.99262        4.97680
H          0.04368        0.12319        5.01506
