19
1-ETHYLCYCLOPENTENE.gamout	Energy:    -273.7647472
C          1.04824        3.33879        1.02451
C          1.62605        2.25087        1.95340
C          3.09858        2.00158        1.76038
C          4.15440        3.04255        2.10965
C          3.68337        0.86194        1.32469
C          5.45836        2.47293        1.48845
C          5.19441        0.95128        1.30386
H          1.54747        4.31541        1.18056
H         -0.03432        3.48250        1.21182
H          1.17905        3.05851       -0.03924
H          1.44522        2.55179        3.01033
H          1.07103        1.30291        1.79926
H          4.22962        3.14389        3.21747
H          3.91007        4.05495        1.72676
H          3.13065       -0.05176        1.05707
H          6.35570        2.68373        2.10158
H          5.62433        2.93936        0.49660
H          5.64030        0.55340        0.36844
H          5.63490        0.35170        2.13373
