24
1-ETHYLNAPHTHALENE.gamout	Energy:    -464.1976701
C          5.46967        4.42040        2.13999
C          6.26664        4.63861        0.83757
C          3.96393        4.45421        1.95126
C          3.25226        5.61129        2.26589
C          1.84749        5.70634        2.07255
C          1.13936        4.62853        1.56458
C          1.81234        3.41363        1.23463
C          1.10344        2.28473        0.72034
C          1.76167        1.10490        0.40479
C          3.16739        1.00592        0.59601
C          3.88673        2.08412        1.09521
C          3.24539        3.31820        1.42763
H          5.74846        5.20821        2.86842
H          5.77307        3.45990        2.60742
H          6.04109        3.85968        0.08362
H          7.35664        4.61803        1.03594
H          6.01670        5.61826        0.38511
H          3.79567        6.47787        2.67293
H          1.32646        6.64127        2.32709
H          0.05121        4.69117        1.41458
H          0.01483        2.36830        0.58016
H          1.19953        0.24482        0.01229
H          3.68733        0.06918        0.34635
H          4.97067        1.98454        1.23828
