23
1-FLUOROHEPTANE.gamout	Energy:    -375.3611853
C         70.02581       10.03504        0.00012
C         68.70901        9.24187       -0.00007
C         68.89885        7.71853        0.00012
C         69.80435       11.55682       -0.00009
C         67.57356        6.93904       -0.00011
C         71.10737       12.34184        0.00010
C         67.75508        5.41623        0.00007
F         70.84511       13.72691       -0.00012
H         70.62782        9.74261        0.88823
H         70.62821        9.74240       -0.88765
H         68.10752        9.53761       -0.88743
H         68.10717        9.53778        0.88700
H         69.49928        7.41984        0.88774
H         69.49969        7.41967       -0.88717
H         69.21086       11.85089       -0.89109
H         69.21049       11.85108        0.89060
H         66.97711        7.24448       -0.88686
H         66.97669        7.24464        0.88630
H         71.71766       12.12475        0.90240
H         71.71805       12.12454       -0.90189
H         66.77974        4.89135       -0.00015
H         68.31773        5.07896        0.89420
H         68.31820        5.07882       -0.89372
