11
1-FLUOROPROPANE.gamout	Energy:    -218.2202683
C         34.99924       10.01638        0.00010
C         33.68625        9.24557       -0.00011
C         33.90486        7.72548        0.00010
F         34.75448       11.40341       -0.00010
H         35.60657        9.79020        0.90253
H         35.60697        9.79003       -0.90203
H         33.09826        9.54908       -0.89062
H         33.09784        9.54927        0.89006
H         32.93695        7.18859       -0.00008
H         34.47003        7.39557        0.89513
H         34.47045        7.39539       -0.89460
