20
1-FLUOROHEXANE.gamout	Energy:    -336.0758983
C         68.98837       10.02609        0.00011
C         67.68570        9.21017       -0.00011
C         67.92745        7.69157        0.00010
C         68.76386       11.54558       -0.00011
C         66.63296        6.89261       -0.00012
C         70.06624       12.35609        0.00012
F         66.90889        5.51017        0.00012
H         69.59616        9.74332        0.88763
H         69.59659        9.74313       -0.88707
H         67.07885        9.49292       -0.88823
H         67.07843        9.49311        0.88766
H         68.52416        7.40414        0.89111
H         68.52457        7.40398       -0.89059
H         68.15388       11.82321       -0.88696
H         68.15345       11.82339        0.88640
H         66.02028        7.10302       -0.90245
H         66.01985        7.10324        0.90186
H         69.86658       13.44543       -0.00003
H         70.68144       12.12755        0.89422
H         70.68187       12.12737       -0.89364
