18
1-FLUORONAPHTHALENE.gamout	Energy:    -484.7958893
C          5.80584        1.75790       -0.56080
F          5.85139        2.35931       -1.78017
C          4.60239        1.08409       -0.19930
C          6.91334        1.82429        0.26482
C          4.56591        0.44841        1.09934
C          3.46154        1.01738       -1.05342
C          6.85661        1.19232        1.53854
C          5.71317        0.52061        1.94815
C          3.36986       -0.23298        1.48257
C          2.31892        0.34488       -0.64185
C          2.27231       -0.28445        0.63398
H          7.81207        2.35885       -0.07142
H          3.50542        1.50537       -2.03609
H          7.73448        1.24215        2.19895
H          5.67531        0.03435        2.93362
H          3.33280       -0.71967        2.46873
H          1.44275        0.29706       -1.30498
H          1.36056       -0.81400        0.94718
