31
1-HEXYL-2-PYRROLIDONE.gamout	Energy:    -522.1581486
O          2.01593       -0.17016        2.00037
N          1.55215       -0.45309       -0.25877
C          2.00473        0.05132       -1.55130
C          0.74526       -1.65647       -0.12672
C          2.68991        1.39505       -1.19928
C         -0.71276       -1.49595       -0.59152
C          3.10868        1.22955        0.27339
C         -1.49858       -0.42382        0.17561
C          2.17327        0.14388        0.82126
C         -2.96986       -0.32273       -0.25299
C         -3.75281        0.77316        0.48597
C         -5.22451        0.86702        0.06395
H          1.15710        0.18387       -2.25342
H          2.71305       -0.66926       -2.02379
H          1.23030       -2.48257       -0.69342
H          0.77732       -1.92169        0.94885
H          1.95597        2.21914       -1.29430
H          3.53154        1.62160       -1.87932
H         -1.20803       -2.48282       -0.46918
H         -0.74505       -1.27872       -1.68159
H          3.02632        2.14916        0.88076
H          4.15019        0.86027        0.38123
H         -1.44121       -0.63936        1.26433
H         -1.00511        0.56213        0.03928
H         -3.46827       -1.30373       -0.08799
H         -3.02323       -0.13701       -1.34921
H         -3.69009        0.58909        1.58023
H         -3.25446        1.75216        0.31680
H         -5.31734        1.08313       -1.02006
H         -5.76005       -0.08405        0.26089
H         -5.75453        1.66983        0.61282
