18
1-HEXENE.gamout	Energy:    -235.6758320
H         -2.36699       -0.98314       -0.00002
H         -2.58946       -2.84329        0.00002
C         -1.90581       -1.98224        0.00000
H         -0.18438       -3.19439        0.00004
C         -0.57159       -2.15925        0.00001
H          1.15308       -1.25503        0.87989
H          1.15307       -1.25511       -0.87990
C          0.48913       -1.08645       -0.00001
H         -0.64580        0.53899       -0.88843
H         -0.64578        0.53901        0.88840
C          0.00078        0.36744       -0.00002
H          1.79264        1.22047        0.88705
H          1.79268        1.22054       -0.88704
C          1.14454        1.39378        0.00000
H          0.04877        3.07680       -0.89400
H          0.04875        3.07686        0.89400
H          1.52095        3.55452        0.00002
C          0.66624        2.85150        0.00001
