19
1-HEPTYNE.gamout	Energy:    -273.7095009
C          5.88861        1.73726        0.90756
C          4.47574        1.13854        0.90736
C          3.36760        2.21738        0.90977
C          6.99938        0.67536        0.89297
C          2.01121        1.66668        0.90730
C          8.41351        1.26992        0.90308
C          0.88559        1.18715        0.90536
H          6.00885        2.40587        0.02636
H          6.01586        2.38785        1.80132
H          4.34087        0.48577        0.01971
H          4.34130        0.48389        1.79367
H          3.49345        2.87367        1.79899
H          3.49431        2.87826        0.02411
H          6.86964        0.00497        1.76986
H          6.87181        0.02927       -0.00237
H          8.58049        1.88953        1.80763
H          9.18675        0.47756        0.89081
H          8.58156        1.91880        0.01961
H         -0.10926        0.76726        0.90298
