16
1-HEXYNE.gamout	Energy:    -234.4240493
C          4.66957        1.93083        1.05483
C          3.40746        1.04396        0.94840
C          2.10610        1.84949        1.06824
C          5.92687        1.18740        0.95718
C          0.84515        0.98191        0.96735
C          6.97362        0.55764        0.88901
H          4.64357        2.71098        0.26206
H          4.65178        2.48091        2.02166
H          3.42933        0.49796       -0.01803
H          3.44464        0.26719        1.74109
H          2.10449        2.39586        2.03653
H          2.08586        2.63293        0.27933
H         -0.07384        1.59272        1.05795
H          0.80260        0.44907       -0.00404
H          0.82088        0.21559        1.76866
H          7.89722        0.00149        0.82808
