21
1-HEXANOL.gamout	Energy:    -312.0776853
C          4.95831        2.12113        0.80547
C          3.64947        1.61625        1.43253
C          2.41378        1.89370        0.56367
C          6.19993        1.86115        1.67243
C          1.11685        1.38773        1.18901
C          7.50252        2.37078        1.04230
O          0.03287        1.70704        0.30898
H          5.09628        1.64117       -0.18836
H          4.87151        3.21213        0.60691
H          3.73475        0.52398        1.62506
H          3.51750        2.09334        2.42868
H          2.31425        2.98488        0.38325
H          2.53316        1.42046       -0.43373
H          6.05623        2.33969        2.66536
H          6.28373        0.77054        1.87032
H          1.18171        0.28637        1.35517
H          0.97074        1.86557        2.18658
H          7.68902        1.88369        0.06366
H          7.46099        3.46506        0.86692
H          8.37630        2.16716        1.69171
H         -0.79867        1.38931        0.69966
