11
1-IODOPROPANE.gamout	Energy:    -416.2886910
C          0.14301        0.31880        0.71107
C          1.68131        0.24796        0.71110
C          2.29725        1.64100        0.71112
I          4.49643        1.59066        0.71130
H         -0.29206       -0.69951        0.71088
H         -0.23899        0.84884       -0.18470
H         -0.23904        0.84853        1.60700
H          2.03069       -0.31494       -0.17806
H          2.03065       -0.31496        1.60027
H          2.03110        2.22232        1.61227
H          2.03127        2.22225       -0.19013
