17
1-IODOPENTANE.gamout	Energy:    -494.8593418
C         59.04000       33.99221       -0.00014
C         58.27916       32.65490        0.00004
C         60.56471       33.82834        0.00020
C         56.74829       32.84354       -0.00021
C         56.01746       31.50859        0.00004
I         53.82892       31.75044       -0.00009
H         58.72674       34.58381       -0.88680
H         58.72639       34.58425        0.88611
H         58.58338       32.05972        0.88851
H         58.58365       32.05931       -0.88806
H         61.07481       34.81117        0.00002
H         60.90924       33.27108        0.89465
H         60.90958       33.27058       -0.89380
H         56.45043       33.43677       -0.88929
H         56.45022       33.43720        0.88851
H         56.22657       30.90837        0.90305
H         56.22668       30.90791       -0.90264
