20
1-IODOHEXANE.gamout	Energy:    -534.1446561
C         -0.05551       -0.06301        0.00003
C          1.30637        0.64369       -0.00018
C          1.19491        2.17633        0.00017
C          2.55311        2.89597       -0.00004
C          2.41016        4.43221        0.00025
C          3.76525        5.12542       -0.00005
I          3.56846        7.31887        0.00018
H          0.05779       -1.16446       -0.00024
H         -0.64896        0.21565        0.89422
H         -0.64944        0.21604       -0.89371
H          1.89354        0.32153       -0.88704
H          1.89403        0.32115        0.88622
H          0.60933        2.50231        0.88756
H          0.60890        2.50266       -0.88681
H          3.13920        2.57535       -0.88869
H          3.13967        2.57503        0.88819
H          1.82653        4.74672        0.88983
H          1.82603        4.74697       -0.88892
H          4.35889        4.90130       -0.90373
H          4.35946        4.90109        0.90320
