14
1-IODOBUTANE.gamout	Energy:    -455.5740062
C          0.87548        0.02098       -0.00012
C          2.23845        0.74217        0.00013
C          3.40731       -0.23475       -0.00009
C         -0.30553        1.00192        0.00011
I          5.34506        0.81110        0.00020
H          0.80821       -0.64324       -0.88812
H          0.80812       -0.64373        0.88749
H          2.30859        1.40192        0.88920
H          2.30865        1.40242       -0.88857
H          3.43511       -0.86997       -0.90337
H          3.43504       -0.87045        0.90286
H         -1.27413        0.46577       -0.00008
H         -0.28144        1.65583        0.89492
H         -0.28137        1.65636       -0.89431
