22
1-METHYL-4-ISOPROPENYLBENZENE.gamout	Energy:    -388.0082395
C          5.58316        5.59898        2.06687
C          5.71287        4.12069        1.76363
C          6.93501        3.53989        1.67803
C          4.45564        3.34023        1.58088
C          3.24011        3.75305        2.17607
C          4.42052        2.15801        0.79870
C          2.05954        3.00978        2.02066
C          3.24149        1.42084        0.64459
C          2.03249        1.82812        1.25396
C          0.75943        1.03665        1.05928
H          5.13221        5.76971        3.06682
H          6.57269        6.09119        2.05979
H          4.92908        6.10620        1.32818
H          7.85397        4.13211        1.79340
H          7.05890        2.46058        1.51218
H          3.21238        4.66442        2.78940
H          5.33233        1.82534        0.28240
H          1.13626        3.35746        2.50971
H          3.25332        0.50970        0.02585
H         -0.02363        1.34188        1.77888
H          0.34854        1.18190        0.03773
H          0.93631       -0.05027        1.18566
