24
1-METHYL-2-PROPYLBENZENE.gamout	Energy:    -389.2332019
C          1.74336        4.40906        2.13135
C          0.80624        5.60537        1.92532
C          2.92220        4.38777        1.13201
C          3.85374        3.20648        1.32592
C          3.60106        2.00542        0.63015
C          4.40806        0.86997        0.80088
C          5.49828        0.92599        1.68288
C          5.76483        2.11626        2.37816
C          4.96131        3.26435        2.21795
C          5.29219        4.53165        2.97620
H          1.17374        3.46088        2.03222
H          2.14093        4.41615        3.16802
H          1.34781        6.56543        2.05059
H         -0.03076        5.59457        2.65052
H          0.36881        5.60061        0.90602
H          3.48340        5.34172        1.21703
H          2.51242        4.36284        0.09998
H          2.74847        1.96569       -0.06623
H          4.18760       -0.05239        0.24353
H          6.14436        0.04785        1.82893
H          6.62451        2.15913        3.06522
H          6.16113        4.37975        3.64309
H          4.44313        4.87426        3.60159
H          5.54162        5.36673        2.28827
