15
1-METHOXYPROPANE.gamout	Energy:    -233.4938249
O          1.21221       -0.46362        0.00503
C         -1.19214       -0.51216        0.00354
C          0.05733        0.36431        0.00155
C         -2.49075        0.30353       -0.00061
C          2.42028        0.27310        0.00391
H         -1.15131       -1.17785       -0.88308
H         -1.15303       -1.17181        0.89474
H          0.06450        1.02903       -0.89883
H          0.06340        1.03505        0.89745
H         -2.56059        0.95124       -0.89812
H         -3.37563       -0.36165        0.00085
H         -2.56243        0.95762        0.89212
H          2.50486        0.91906       -0.90191
H          3.25287       -0.45460        0.00630
H          2.50364        0.92366        0.90654
