16
1-METHYLCYCLOPENTENE.gamout	Energy:    -234.4808412
C          0.96091        1.58928        0.90943
C          1.94742        1.90806        1.99363
C          2.16373        3.33134        2.48722
C          2.78030        1.05210        2.62834
C          3.02913        3.15610        3.76432
C          3.67655        1.74718        3.63094
H          1.18892        2.15762       -0.01836
H          0.95696        0.51138        0.65988
H         -0.06968        1.87986        1.20717
H          2.68744        3.92927        1.70514
H          1.20732        3.86041        2.68527
H          2.83902       -0.02620        2.41455
H          3.77565        3.96334        3.89314
H          2.37301        3.17403        4.65794
H          3.73640        1.21371        4.60259
H          4.72185        1.80812        3.24882
