30
1-METHYL-4-ISOPROPYLCYCLOHEXANE.gamout	Energy:    -392.8522441
C          2.95993        0.95198        5.15386
C          3.14920        1.69934        3.82401
C          2.08562        1.73236        6.15362
C          1.81350        2.08077        3.14846
C          0.92976        2.84637        4.15873
C          2.02265        2.86890        1.82364
C          0.74580        2.09495        5.48773
C          1.89160        0.96450        7.46805
C          0.69246        3.25849        1.15178
C          2.90177        2.09938        0.81930
H          3.94976        0.73211        5.60588
H          2.48068       -0.03491        4.96092
H          3.76325        1.07813        3.14407
H          3.73036        2.63189        4.00849
H          2.61222        2.68845        6.38532
H          1.28326        1.13180        2.88805
H         -0.06553        3.05413        3.72055
H          1.39848        3.83789        4.35477
H          2.55565        3.81203        2.09018
H          0.17471        1.15646        5.30329
H          0.12832        2.70259        6.18195
H          1.37109       -0.00024        7.29114
H          2.86380        0.73657        7.94914
H          1.28400        1.54462        8.19115
H          0.07986        2.35825        0.93357
H          0.08361        3.93982        1.77476
H          0.87880        3.77355        0.18880
H          2.45255        1.11214        0.58113
H          2.99699        2.65964       -0.13156
H          3.92604        1.92274        1.19708
