24
1-METHYL-1-ETHYLCYCLOPENTANE.gamout	Energy:    -314.2726378
C          1.73259        1.77743        1.27671
C          0.78751        0.95037        2.15950
C          2.98273        2.35850        1.97771
C          2.57910        3.32865        3.11065
C          3.94014        1.25655        2.51364
C          3.90434        3.08589        0.95868
C          5.33538        1.92464        2.61602
C          5.31331        3.11307        1.60291
H          1.16458        2.61544        0.81656
H          2.07990        1.14564        0.43048
H          1.31115        0.09152        2.62503
H          0.34160        1.55414        2.97446
H         -0.05047        0.54113        1.56167
H          2.03295        2.80496        3.91900
H          3.46072        3.81370        3.57263
H          1.92260        4.13339        2.72161
H          3.96926        0.42378        1.77892
H          3.60439        0.82396        3.47633
H          3.52900        4.09600        0.69797
H          3.93043        2.49881        0.01655
H          6.14704        1.20412        2.39754
H          5.51752        2.29227        3.64506
H          5.48935        4.07468        2.12438
H          6.11138        3.02425        0.84137
