21
1-METHYLNAPHTHALENE.gamout	Energy:    -424.9140103
C          2.05051        1.20484        3.71416
C          0.60807        0.83157        3.46332
C          2.73968        2.11133        2.82902
C          2.73910        0.67938        4.80522
C          4.12230        2.45073        3.09514
C          2.10921        2.69634        1.68697
C          4.09673        1.01196        5.06684
C          4.77751        1.88086        4.22918
C          4.79815        3.34913        2.21409
C          2.79648        3.56704        0.85053
C          4.15368        3.89804        1.11434
H         -0.05287        1.72312        3.47672
H          0.47750        0.34744        2.47299
H          0.24312        0.12840        4.23387
H          2.21861       -0.01297        5.48460
H          1.06105        2.45341        1.46558
H          4.60165        0.57303        5.94020
H          5.82790        2.14336        4.42455
H          5.84887        3.60039        2.42552
H          2.28961        4.00477       -0.02231
H          4.68893        4.58816        0.44573
