18
1-METHYL-1-ETHYLCYCLOPROPANE.gamout	Energy:    -235.6744589
C          2.63626       -1.32397        1.70672
C          1.75148       -0.27366        1.01687
C          1.17918        0.78723        1.95840
C          0.21501        0.27105        3.01830
C          2.07517        1.95889        2.32252
C          0.90596        2.16134        1.37301
H          3.05687       -2.03616        0.97013
H          3.48246       -0.84175        2.23597
H          2.06516       -1.91458        2.44978
H          0.91078       -0.78071        0.49352
H          2.34034        0.23602        0.22621
H          0.70493       -0.44493        3.70884
H         -0.18714        1.09940        3.63345
H         -0.64641       -0.24789        2.54874
H          2.00027        2.37869        3.33614
H          3.09123        1.98797        1.90142
H          1.12718        2.32825        0.30837
H          0.03077        2.71847        1.73882
