22
1-METHYLINDANE.gamout	Energy:    -388.0293798
C          0.83519        3.13963        1.42497
C          2.12316        2.35645        1.10981
C          3.38097        3.00368        1.67093
C          2.13740        0.91107        1.71715
C          4.10246        2.12114        2.50001
C          3.85355        4.30817        1.44348
C          3.42266        0.76879        2.58922
C          5.29492        2.54040        3.11520
C          5.04686        4.72741        2.05776
C          5.76410        3.84719        2.89177
H          0.69192        3.22832        2.52068
H         -0.05103        2.62737        1.00030
H          0.86896        4.16298        1.00292
H          2.21574        2.29516        0.00266
H          2.11383        0.14936        0.91472
H          1.22680        0.74632        2.32656
H          3.29667        5.00064        0.79356
H          4.08793       -0.03802        2.21665
H          3.18557        0.50826        3.64195
H          5.86009        1.85386        3.76442
H          5.42424        5.74670        1.88667
H          6.69649        4.18489        3.36843
