27
1-METHYL-1-ISOPROPYLCYCLOPENTANE.gamout	Energy:    -353.5539727
C         -0.69155       -0.80699       -0.44189
C          0.86299       -0.74542       -0.44878
C          1.24331        0.27851        0.64891
C          0.01567        1.23596        0.76939
C         -1.05185        0.69029       -0.21669
C         -1.29932       -1.41745       -1.75099
C         -2.83650       -1.29777       -1.79784
C         -0.70681       -0.85835       -3.05914
C         -1.14806       -1.64456        0.77660
H          1.21779       -0.37396       -1.42894
H          1.32371       -1.74167       -0.29257
H          2.17256        0.82222        0.39268
H          1.44012       -0.23000        1.61306
H          0.28446        2.28359        0.53397
H         -0.37519        1.24441        1.80559
H         -2.08388        0.82456        0.16034
H         -0.98838        1.23801       -1.17934
H         -1.05409       -2.50375       -1.72324
H         -3.15103       -0.23752       -1.88022
H         -3.32668       -1.72799       -0.90472
H         -3.24035       -1.82942       -2.68174
H         -0.83173        0.24159       -3.12866
H         -1.22794       -1.30011       -3.93102
H          0.36896       -1.08637       -3.17273
H         -0.68207       -1.28893        1.71517
H         -0.86455       -2.70835        0.64556
H         -2.24379       -1.60077        0.92224
