28
1-N-PENTYLCYCLOPENTENE.gamout	Energy:    -391.6183839
C          1.84250        1.54753        4.68186
C          3.26036        0.95315        4.86927
C          4.39603        1.65560        4.17327
C          1.23598        1.39979        3.27311
C          4.76567        3.10290        4.46806
C          5.28620        1.10640        3.31381
C          1.75831        2.40078        2.22808
C          5.82253        3.44597        3.38408
C          6.37011        2.07505        2.89565
C          1.09429        2.24931        0.85456
H          1.84078        2.62099        4.97100
H          1.17756        1.04064        5.41151
H          3.47894        0.95112        5.96188
H          3.25047       -0.11217        4.55584
H          1.40497        0.36211        2.90649
H          0.13209        1.51500        3.34528
H          3.89337        3.78768        4.44134
H          5.18088        3.17898        5.49990
H          5.26012        0.05435        2.99150
H          1.58855        3.43073        2.61224
H          2.85664        2.28689        2.12867
H          5.32435        3.96311        2.53956
H          6.61750        4.12124        3.75431
H          7.33659        1.81572        3.38697
H          6.57137        2.06035        1.80397
H         -0.00486        2.38648        0.91925
H          1.27721        1.24183        0.42751
H          1.48309        2.99255        0.13118
