22
1-N-PROPYLCYCLOPENTENE.gamout	Energy:    -313.0491522
C          3.97606        2.80668        2.34485
C          5.12949        1.99292        2.89371
C          3.02150        2.03623        1.77321
C          4.57727        0.53944        2.87294
C          3.40539        0.56537        1.85632
C          1.76987        2.46344        1.05073
C          0.86721        4.35709        2.54803
C          1.37972        3.94853        1.15860
H          3.95997        3.90544        2.37870
H          6.02989        2.10188        2.24594
H          5.44226        2.31535        3.90882
H          5.35087       -0.21179        2.62237
H          4.18570        0.28190        3.87759
H          3.71674        0.19667        0.85130
H          2.55445       -0.07768        2.16676
H          0.92162        1.83545        1.40947
H          1.88672        2.18694       -0.02275
H          0.60430        5.43306        2.58034
H          1.62278        4.16818        3.33486
H         -0.04232        3.78100        2.81512
H          2.24669        4.58028        0.87051
H          0.59066        4.15850        0.40683
