25
1-N-PROPYLCYCLOHEXENE.gamout	Energy:    -352.3403387
C          0.87689        1.77268        5.04139
C          0.90168        3.30186        4.89720
C          2.24300        1.17358        4.66415
C          1.21719        3.70893        3.44826
C          2.36818        2.92677        2.83558
C          2.82026        1.78729        3.40910
C          2.90976        3.49230        1.53374
C          4.18835        2.86636        0.94960
C          5.46894        3.21233        1.72499
H          0.09591        1.35753        4.36805
H          0.59901        1.47723        6.07343
H          1.68055        3.71882        5.57196
H         -0.06425        3.74340        5.21651
H          2.15738        0.07379        4.53075
H          2.96133        1.30891        5.50629
H          1.44728        4.79548        3.39868
H          0.31244        3.57582        2.80977
H          3.66160        1.24897        2.94594
H          2.09349        3.42822        0.77703
H          3.07632        4.58574        1.67113
H          4.06854        1.76436        0.87955
H          4.29722        3.22061       -0.09627
H          5.63939        4.30842        1.73275
H          5.41549        2.87940        2.77957
H          6.35843        2.73902        1.26390
