28
1-N-BUTYLCYCLOHEXENE.gamout	Energy:    -391.6262311
C          2.08297        2.72033        4.02938
C          3.43361        2.07221        3.64940
C          4.34146        2.97543        2.84062
C          1.19884        1.85380        4.94554
C          5.04471        4.09244        3.59426
C          4.52975        2.80102        1.51116
C          0.69643        0.55198        4.30439
C          5.63178        5.17356        2.67241
C          5.43170        3.65936        0.65443
C          6.37960        4.53491        1.49304
H          2.27253        3.69089        4.53431
H          1.53031        2.96272        3.09571
H          3.95632        1.77532        4.58833
H          3.25163        1.13735        3.08186
H          1.76198        1.61775        5.87501
H          0.32519        2.45977        5.26523
H          5.85202        3.64061        4.21739
H          4.34293        4.54996        4.32382
H          3.99538        1.97728        1.00749
H          0.13001        0.76148        3.37372
H          0.02272        0.00144        4.99018
H          1.52911       -0.13053        4.04397
H          6.30079        5.84425        3.24909
H          4.80691        5.80805        2.28149
H          4.80854        4.30044       -0.01170
H          6.01741        3.01246       -0.03352
H          7.20551        3.90381        1.88760
H          6.85080        5.31184        0.85713
