30
1-N-BUTYLNAPHTHALENE.gamout	Energy:    -542.7687969
C          2.78905        3.68276        3.44674
C          3.44205        5.05249        3.74160
C          3.76929        2.61061        3.01201
C          2.42368        6.12208        4.16522
C          4.63590        1.95182        3.95882
C          3.86154        2.26223        1.66471
C          3.06221        7.48472        4.46407
C          5.58909        0.97007        3.48384
C          4.59238        2.22068        5.36256
C          4.78966        1.29143        1.19989
C          5.64300        0.66045        2.09114
C          6.45105        0.32589        4.42402
C          5.44297        1.57465        6.25013
C          6.38654        0.62093        5.77812
H          2.03647        3.81402        2.64311
H          2.22405        3.34890        4.34372
H          3.98722        5.39447        2.83573
H          4.21232        4.93693        4.53235
H          1.86937        5.76626        5.06080
H          1.66352        6.23494        3.36225
H          3.19299        2.75211        0.94032
H          2.30118        8.23521        4.75427
H          3.60101        7.87761        3.57802
H          3.79472        7.41036        5.29311
H          3.86947        2.95107        5.74926
H          4.82649        1.04566        0.12820
H          6.36946       -0.08800        1.74109
H          7.17146       -0.41706        4.04903
H          5.38506        1.79876        7.32550
H          7.05915        0.11758        6.48793
