16
1-NITROBUTANE.gamout	Energy:    -362.7291331
C         52.00187        0.02258       -0.16558
N         53.34466        0.71978       -0.02178
C         50.82481        0.96360        0.08485
O         54.22010        0.13384        0.61970
O         53.47742        1.81522       -0.57145
C         49.47721        0.24417       -0.09919
C         48.27472        1.16386        0.14966
H         51.99332       -0.36483       -1.20398
H         52.03335       -0.82720        0.53782
H         50.89574        1.36988        1.11574
H         50.89736        1.82509       -0.60789
H         49.42023       -0.17020       -1.12887
H         49.42715       -0.62705        0.58837
H         47.32035        0.62022        0.01151
H         48.28583        1.56864        1.18151
H         48.27850        2.02414       -0.54889
