27
1-NONENE.gamout	Energy:    -353.5319509
C          4.79878        0.64799       -1.19553
C          3.92040        0.59091       -0.17710
C          2.49850        1.08536       -0.21620
C          1.45839       -0.02882        0.02730
C          0.00899        0.47828        0.00726
C         -1.03307       -0.62129        0.25823
C         -2.48310       -0.11552        0.23971
C         -3.52476       -1.21463        0.49795
C         -4.97234       -0.70696        0.47968
H          5.82230        0.25857       -1.09391
H          4.52364        1.08857       -2.16728
H          4.24666        0.14080        0.77873
H          2.36372        1.86579        0.56699
H          2.29677        1.57900       -1.19030
H          1.58903       -0.82248       -0.73921
H          1.66450       -0.51368        1.00671
H         -0.10870        1.27735        0.77263
H         -0.19791        0.96466       -0.97147
H         -0.91334       -1.42217       -0.50469
H         -0.82511       -1.10501        1.23818
H         -2.60032        0.68709        1.00163
H         -2.69271        0.36681       -0.74077
H         -3.40284       -2.01697       -0.26192
H         -3.31018       -1.69355        1.47794
H         -5.22632       -0.25673       -0.50144
H         -5.69271       -1.52622        0.67139
H         -5.13346        0.07074        1.25382
