30
1-NONANOL.gamout	Energy:    -429.9332641
C          4.41644       -0.52022        0.00000
C          3.16324        0.35076        0.00000
C          1.86332       -0.46587        0.00000
C          0.59656        0.40332        0.00000
C         -0.70716       -0.40753       -0.00000
C         -1.97479        0.45952       -0.00000
C         -3.27941       -0.35009       -0.00000
C         -4.54629        0.51952        0.00000
C         -5.84901       -0.28966       -0.00000
O          5.56481        0.33513       -0.00000
H          4.41627       -1.18236        0.89819
H          4.41627       -1.18236       -0.89819
H          3.19777        1.01510        0.88928
H          3.19777        1.01510       -0.88928
H          1.84387       -1.13571       -0.88815
H          1.84386       -1.13571        0.88815
H          0.61232        1.07368        0.88750
H          0.61232        1.07368       -0.88750
H         -0.72220       -1.07841       -0.88750
H         -0.72220       -1.07841        0.88750
H         -1.95895        1.13039        0.88745
H         -1.95895        1.13039       -0.88745
H         -3.29535       -1.02102       -0.88766
H         -3.29535       -1.02102        0.88766
H         -4.52452        1.19013        0.88646
H         -4.52452        1.19013       -0.88645
H         -5.91637       -0.94250       -0.89412
H         -5.91637       -0.94250        0.89411
H         -6.73799        0.37135        0.00000
H          6.36940       -0.21062       -0.00000
