27
1-OCTANETHIOL.gamout	Energy:    -713.5918783
C         85.98989       10.03461        0.00009
C         84.69992        9.20083       -0.00012
C         84.95039        7.68521        0.00010
C         85.74664       11.55097       -0.00012
C         83.65566        6.85525       -0.00011
C         87.04007       12.38113        0.00010
C         83.92516        5.34712        0.00011
C         86.79687       13.89587       -0.00008
S         82.31336        4.43330       -0.00029
H         86.60156        9.76145        0.88837
H         86.60200        9.76126       -0.88783
H         84.08772        9.47195       -0.88829
H         84.08736        9.47212        0.88776
H         85.56156        7.41476        0.88917
H         85.56208        7.41453       -0.88854
H         85.13519       11.82558       -0.88826
H         85.13478       11.82575        0.88769
H         83.04601        7.12023       -0.89025
H         83.04558        7.12044        0.88966
H         87.64862       12.10248        0.88770
H         87.64901       12.10234       -0.88718
H         84.50388        5.05714        0.89911
H         84.50449        5.05696       -0.89843
H         87.74992       14.46078        0.00007
H         86.22081       14.20970       -0.89431
H         86.22042       14.20985        0.89385
H         82.83362        3.17284       -0.00006
