22
1-OCTYNE.gamout	Energy:    -312.9935044
C          5.46683        1.44847        0.78144
C          4.09657        0.88116        1.19214
C          3.08050        1.92776        1.67824
C          6.30109        1.95149        1.98571
C          1.72291        1.32125        2.06688
C          7.62099        2.46738        1.61950
C          0.69277        2.36204        2.52449
C          8.72248        2.89964        1.30826
H          6.05039        0.66894        0.25197
H          5.33381        2.28224        0.06056
H          3.66350        0.33654        0.32637
H          4.24224        0.11782        1.98845
H          3.48685        2.48556        2.54986
H          2.93321        2.68596        0.87757
H          5.74312        2.74639        2.52528
H          6.42636        1.11863        2.71278
H          1.31974        0.75160        1.20148
H          1.87813        0.57299        2.87390
H          0.49639        3.10580        1.72604
H         -0.27209        1.88777        2.78954
H          1.05142        2.91673        3.41546
H          9.69458        3.28145        1.03390
