24
1-OCTENE.gamout	Energy:    -314.2439321
C          2.97678        2.44807        2.41449
C          2.90866        2.40901        0.88179
C          3.80168        3.45394        0.19749
C          2.08067        1.40399        3.09888
C          3.73072        3.41862       -1.33720
C          2.14256        1.44198        4.61371
C          4.62195        4.46534       -2.01603
C          1.45903        0.63868        5.44846
H          2.69136        3.46199        2.77108
H          4.02897        2.29529        2.74157
H          1.85452        2.56025        0.55838
H          3.19176        1.39347        0.52649
H          4.85631        3.30366        0.51951
H          3.51803        4.46901        0.55369
H          1.02834        1.55098        2.76820
H          2.35873        0.38801        2.74129
H          2.67479        3.56684       -1.65237
H          4.01128        2.40246       -1.68966
H          2.81339        2.20289        5.05291
H          4.34037        5.49273       -1.70745
H          4.54489        4.41321       -3.11974
H          5.68805        4.31896       -1.74666
H          1.55865        0.72955        6.53974
H          0.77279       -0.13897        5.07560
