37
1-OCTYLPYRROLIDIN-2-ONE.gamout	Energy:    -600.7276748
O          1.81727       -2.42992       -3.33376
N          1.65973       -0.99981       -1.51599
C          1.20549       -2.01109       -0.56663
C          2.08158        0.34442       -1.12574
C         -0.32161       -2.19899       -0.54098
C          2.28604        1.06439       -2.48103
C         -1.11236       -0.97710       -0.05306
C          2.59627       -0.07799       -3.46679
C         -2.63343       -1.19060       -0.06389
C          1.97686       -1.32300       -2.81870
C         -3.43100        0.02875        0.41994
C         -4.95229       -0.17990        0.40356
C         -5.74982        1.04254        0.88241
C         -7.26898        0.82940        0.86586
H          1.68291       -2.96951       -0.85359
H          1.57883       -1.72866        0.43943
H          1.31676        0.83413       -0.49173
H          3.02573        0.30093       -0.53392
H         -0.65071       -2.48148       -1.56203
H         -0.54741       -3.07107        0.10999
H          3.08071        1.83082       -2.42515
H          1.34709        1.57438       -2.77294
H         -0.78447       -0.70849        0.97621
H         -0.87081       -0.10084       -0.69272
H          3.68565       -0.26652       -3.57260
H          2.19361        0.07015       -4.48509
H         -2.88731       -2.07075        0.56705
H         -2.95356       -1.45535       -1.09539
H         -3.17482        0.90744       -0.21293
H         -3.10696        0.29508        1.45050
H         -5.21052       -1.05799        1.03636
H         -5.27286       -0.44707       -0.62787
H         -5.42208        1.30913        1.91080
H         -5.48910        1.91676        0.24696
H         -7.80959        1.73142        1.21345
H         -7.62842        0.59425       -0.15649
H         -7.56238       -0.01342        1.52430
