27
1-OCTANOL.gamout	Energy:    -390.6480386
C          4.00296        3.20994        1.52207
C          5.26528        3.18507        2.39368
C          6.10538        1.91064        2.21599
C          3.15169        4.47799        1.68734
C          7.36766        1.87873        3.08761
C          1.89028        4.48727        0.81186
C          8.18829        0.60637        2.89627
C          1.03469        5.75048        0.97137
O          9.33766        0.67048        3.74805
H          4.29328        3.10135        0.45335
H          3.37909        2.31855        1.75627
H          5.89351        4.07341        2.16163
H          4.97693        3.28922        3.46295
H          6.38966        1.81047        1.14487
H          5.47184        1.02487        2.44520
H          2.85862        4.58832        2.75516
H          3.77255        5.37068        1.45033
H          7.09378        1.96438        4.16057
H          8.01405        2.75269        2.85920
H          2.18777        4.37139       -0.25315
H          1.27776        3.59083        1.05186
H          8.49317        0.51182        1.82694
H          7.56349       -0.28528        3.14130
H          1.60840        6.66041        0.70119
H          0.13614        5.71517        0.32477
H          0.69140        5.87280        2.01891
H          9.86529       -0.13731        3.63140
