15
1-PENTENE.gamout	Energy:    -196.3881157
C          0.14973        6.37904        0.12607
C          1.57078        5.79802        0.20494
C          1.62191        4.38513        0.75227
C          0.10053        7.81001       -0.41986
C          2.73406        3.64985        0.93070
H         -0.47646        5.71340       -0.50638
H         -0.30373        6.34911        1.14037
H          2.03576        5.82566       -0.80581
H          2.20340        6.46205        0.83520
H          0.64954        3.93676        1.02583
H          0.51570        7.86632       -1.44702
H          0.69148        8.50168        0.21493
H         -0.93786        8.19309       -0.45648
H          3.73345        4.03969        0.67887
H          2.68515        2.62989        1.33752
