18
1-PENTANETHIOL.gamout	Energy:    -595.7373349
C          4.42009        1.41536        1.72885
C          2.99208        1.93854        1.49889
C          2.03884        0.86522        0.94874
C          5.37182        2.48829        2.26418
C          0.61027        1.37332        0.71835
S          7.07692        1.88053        2.63261
H          4.82347        1.01498        0.77358
H          4.40088        0.56195        2.43834
H          3.01707        2.80092        0.79633
H          2.58449        2.33509        2.45510
H          2.02062        0.00471        1.65192
H          2.45152        0.47058       -0.00484
H          5.01391        2.88005        3.23784
H          5.43533        3.35129        1.57173
H          0.15807        1.74253        1.66121
H          0.59361        2.21065       -0.00877
H         -0.04479        0.57247        0.32322
H          7.38222        1.48674        1.36205
