28
1-PHENYLNAPHTHALENE.gamout	Energy:    -616.5206473
C          3.53624        1.55368        4.91044
C          3.01905        1.24530        3.59755
C          4.88858        1.32699        5.17978
C          2.65562        2.07212        5.99882
C          3.90594        0.65702        2.61499
C          1.66922        1.51628        3.20987
C          5.75721        0.76666        4.20663
C          2.97407        3.26341        6.69126
C          1.50984        1.34582        6.40276
C          5.27355        0.42465        2.95273
C          3.39374        0.33484        1.32093
C          1.20678        1.19888        1.93930
C          2.16729        3.71830        7.74783
C          0.70429        1.80077        7.45753
C          2.07095        0.59044        0.98803
C          1.02849        2.99019        8.13339
H          5.27503        1.55390        6.18428
H          0.99450        2.00101        3.92765
H          6.81209        0.58620        4.46129
H          3.85878        3.84025        6.38330
H          1.26702        0.40307        5.89144
H          5.93745       -0.02536        2.19963
H          4.07425       -0.11882        0.58437
H          0.16560        1.42544        1.66607
H          2.42674        4.65089        8.27091
H         -0.17828        1.21679        7.75866
H          1.69534        0.33533       -0.01376
H          0.39670        3.34667        8.96012
