17
1-THIAINDAN.gamout	Energy:    -707.5763220
S         -1.82871        1.43285       -0.20297
C         -1.61884       -1.28253       -0.21561
C         -0.22536       -0.70521       -0.06533
C         -2.60878       -0.19448        0.23883
C         -0.20099        0.71105       -0.09079
C          0.98342       -1.40985        0.02543
C          1.01101        1.41999       -0.04119
C          2.20525       -0.71060        0.08276
C          2.21426        0.69494        0.04393
H         -1.79577       -1.53161       -1.28580
H         -1.75682       -2.21706        0.36418
H         -3.59101       -0.25949       -0.26303
H         -2.75877       -0.21736        1.33651
H          0.97525       -2.51065        0.04757
H          1.02140        2.51906       -0.06126
H          3.15141       -1.26546        0.15936
H          3.16931        1.23922        0.08823
