29
2,2,3,4-TETRAMETHYLPENTANE.gamout	Energy:    -354.7557351
C          2.36609        2.89070        1.50333
C          3.73429        3.26213        2.20513
C          1.71396        1.52569        1.90527
C          1.34530        4.04490        1.53447
C          3.56833        3.86901        3.61779
C          4.65255        2.02251        2.29863
C          4.45845        4.30701        1.31879
C          0.71111        1.05555        0.83064
C          1.04573        1.48714        3.29294
H          2.64954        2.74722        0.43595
H          2.52801        0.77323        1.90888
H          0.46168        3.80786        0.91333
H          0.98351        4.25194        2.55978
H          1.77452        4.98398        1.13881
H          3.09753        3.16497        4.32760
H          4.56158        4.13754        4.02959
H          2.95958        4.79270        3.60165
H          5.66609        2.32162        2.63106
H          4.27734        1.27590        3.02410
H          4.75734        1.52304        1.31428
H          4.65413        3.90312        0.30513
H          3.87250        5.23892        1.20390
H          5.43440        4.58674        1.76324
H          1.17221        1.04379       -0.17685
H          0.35732        0.02955        1.05207
H         -0.18472        1.70644        0.78819
H          0.21090        2.21230        3.36038
H          0.62340        0.48131        3.48546
H          1.75201        1.70903        4.11323
