32
2,2,3,4,4-PENTAMETHYLPENTANE.gamout	Energy:    -394.0321896
C         -0.20259       38.52497        0.56406
C          1.17747       38.13260       -0.01053
C          2.28961       39.26110        0.13687
C          1.64987       36.90607        0.81639
C          0.97319       37.67411       -1.47558
C          1.92691       40.78533       -0.12956
C          3.55836       38.85118       -0.64770
C          1.24796       41.02886       -1.49551
C          1.03717       41.37462        0.99470
C          3.23428       41.62262       -0.10295
H         -0.87061       37.64131        0.53971
H         -0.69823       39.32067       -0.02101
H         -0.13075       38.85571        1.61755
H          2.56489       39.23694        1.21519
H          2.62375       36.51009        0.47350
H          0.91361       36.08164        0.73831
H          1.74887       37.16794        1.88888
H          0.21166       36.86979       -1.51351
H          0.61844       38.49391       -2.12542
H          1.89928       37.26556       -1.92064
H          4.45836       39.36457       -0.26734
H          3.75868       37.76846       -0.56616
H          3.47000       39.08599       -1.72670
H          1.14336       42.11734       -1.67680
H          1.84380       40.61562       -2.33220
H          0.23408       40.59101       -1.54803
H          0.95528       42.47274        0.86961
H          1.48238       41.18728        1.99223
H          0.01057       40.97541        0.99965
H          3.81302       41.44654        0.82629
H          3.89518       41.41279       -0.96414
H          2.98710       42.70164       -0.13898
