32
2,2,6-TRIMETHYLHEPTANE.gamout	Energy:    -394.0506205
C         -0.10130       53.02780        0.89094
C          1.11728       53.04093       -0.04718
C          1.68416       54.47078       -0.18892
C          2.18392       52.03581        0.42447
C          2.77463       54.63470       -1.25928
C          3.24458       56.08857       -1.41195
C          4.34286       56.36871       -2.47820
C          5.62894       55.57548       -2.16037
C          4.66371       57.87964       -2.44504
C          3.83917       55.99622       -3.89081
H         -0.54258       52.01434        0.96951
H          0.18488       53.34733        1.91498
H         -0.89382       53.71592        0.53437
H          0.77147       52.72179       -1.05751
H          0.84672       55.16350       -0.42348
H          2.08194       54.79956        0.79818
H          3.03648       51.97608       -0.27853
H          1.75920       51.01701        0.51985
H          2.58366       52.32752        1.41843
H          3.64114       53.99152       -1.00335
H          2.38155       54.25806       -2.22806
H          2.36589       56.72843       -1.64894
H          3.62009       56.44504       -0.42705
H          6.43691       55.83399       -2.87360
H          5.46644       54.48238       -2.22881
H          5.99816       55.79995       -1.13905
H          5.44061       58.14018       -3.19161
H          3.76218       58.48420       -2.67039
H          5.03702       58.18800       -1.44739
H          2.90277       56.53778       -4.13360
H          4.59225       56.26164       -4.65920
H          3.63920       54.91128       -3.98449
