32
2,2,3,3,4-PENTAMETHYLPENTANE.gamout	Energy:    -394.0298519
C          0.54054        3.56400        0.04987
C          1.72792        4.53993       -0.10690
C          3.19188        3.92587       -0.01502
C          1.44501        5.48759       -1.28928
C          3.74475        3.15140       -1.30834
C          4.14024        5.10208        0.33364
C          3.21242        2.98292        1.21573
C          2.69502        2.18778       -1.90445
C          4.98604        2.29638       -0.93723
C          4.20746        4.11446       -2.43179
H          0.64441        2.89791        0.92517
H         -0.39001        4.14799        0.19720
H          0.37996        2.93094       -0.84094
H          1.69103        5.18056        0.80333
H          2.24354        6.23685       -1.43781
H          0.50446        6.04200       -1.10133
H          1.30477        4.93686       -2.24011
H          5.19522        4.77375        0.39312
H          3.87502        5.52424        1.32345
H          4.09171        5.93012       -0.39721
H          2.69073        3.46001        2.06875
H          2.72257        2.00893        1.02935
H          4.24726        2.77768        1.54547
H          3.16066        1.56203       -2.69225
H          1.85432        2.72827       -2.37716
H          2.27952        1.49868       -1.14545
H          5.43081        1.87374       -1.85976
H          5.77589        2.89039       -0.43816
H          4.73048        1.44451       -0.28028
H          3.41148        4.79136       -2.78350
H          5.06778        4.73164       -2.11216
H          4.54124        3.52063       -3.30586
