32
2,2,3-TRIMETHYLHEPTANE.gamout	Energy:    -394.0441834
C         99.08512       54.07717        1.40722
C         97.94587       54.11894        0.38208
C         97.06689       55.37409        0.49499
C         95.90418       55.40184       -0.50841
C         95.01539       56.68095       -0.43374
C         95.20881       57.65724       -1.65293
C         93.54642       56.29542       -0.17698
C         96.69616       58.06628       -1.75224
C         94.77233       57.00357       -2.98389
C         94.38340       58.94652       -1.43631
H         99.70658       53.16711        1.29463
H         99.75375       54.95512        1.29623
H         98.69189       54.08878        2.44424
H         97.30605       53.21677        0.49435
H         98.36624       54.06615       -0.64578
H         97.70121       56.27678        0.36097
H         96.65631       55.44595        1.52657
H         95.27084       54.50670       -0.33167
H         96.30874       55.26616       -1.53264
H         95.35339       57.25687        0.45693
H         92.88620       57.17592       -0.07124
H         93.46428       55.71039        0.76022
H         93.14331       55.66142       -0.99193
H         96.84417       58.79404       -2.57437
H         97.04015       58.54594       -0.81391
H         97.35854       57.20305       -1.95637
H         94.95280       57.69509       -3.83063
H         93.69355       56.75407       -2.98548
H         95.33801       56.07464       -3.18852
H         94.62797       59.42005       -0.46378
H         94.60265       59.68523       -2.23269
H         93.29389       58.75589       -1.45911
