26
2,2,3,3-TETRAMETHYLBUTANE.gamout	Energy:    -315.4735315
C          2.09241        2.23449        1.69093
C          3.51516        2.17142        2.41308
C          3.72290        0.80959        3.11916
C          3.64686        3.28271        3.48252
C          4.66719        2.35844        1.39702
C          1.99517        3.46181        0.75323
C          1.84546        0.96689        0.83741
C          0.94408        2.34226        2.72356
H          3.80838       -0.02383        2.39663
H          4.66084        0.83055        3.70865
H          2.89987        0.57195        3.82046
H          4.67817        3.29603        3.88742
H          3.44285        4.28962        3.07005
H          2.96380        3.11925        4.33761
H          4.60854        1.64411        0.55287
H          4.68661        3.38183        0.97644
H          5.64124        2.19242        1.89857
H          0.96417        3.55239        0.35750
H          2.23093        4.40901        1.27565
H          2.67194        3.37750       -0.11872
H          1.72653        0.06217        1.46314
H          0.91309        1.08091        0.24945
H          2.66677        0.78292        0.11850
H         -0.03300        2.26740        2.20639
H          0.97528        1.53447        3.48053
H          0.95711        3.31052        3.25913
