26
2,2,3-TRIMETHYLPENTANE.gamout	Energy:    -315.4751027
C          3.22705        2.00707        2.63295
C          1.82194        1.80757        1.94576
C          4.16055        2.98576        1.88004
C          3.96078        0.67938        2.90860
C          1.94027        1.04017        0.61055
C          1.15268        3.17780        1.68517
C          0.89180        1.02003        2.89885
C          5.40662        3.40867        2.67297
H          3.00577        2.47220        3.62199
H          4.48220        2.52571        0.92070
H          3.60037        3.90061        1.60773
H          4.35585        0.23566        1.97255
H          4.82219        0.83702        3.58435
H          3.30879       -0.07108        3.39131
H          2.31648        0.01003        0.76105
H          0.94931        0.96124        0.12076
H          2.61930        1.55174       -0.09913
H          0.10632        3.03677        1.35017
H          1.13291        3.79292        2.60744
H          1.67155        3.75828        0.89954
H          0.77971        1.54322        3.86992
H         -0.11770        0.91583        2.45388
H          1.26384       -0.00163        3.10336
H          6.08763        2.55921        2.87362
H          5.98801        4.16954        2.11694
H          5.12463        3.85135        3.65010
