29
2,2,5-TRIMETHYLHEXANE.gamout	Energy:    -354.7653475
C          3.23657       -0.02939       -0.05877
C          1.88731        0.48684        0.46908
C          0.71916       -0.34995       -0.10213
C         -0.67405        0.23292        0.17673
C         -1.88769       -0.51599       -0.44714
C         -3.17441        0.22350       -0.01939
H          4.07693        0.59394        0.30550
H          3.42238       -1.07110        0.27696
H          3.26552       -0.02397       -1.16671
C          1.88044        0.52685        2.00779
H          1.75849        1.53024        0.10027
H          0.86682       -0.44299       -1.19829
H          0.79410       -1.38067        0.30707
H         -0.84281        0.28488        1.27304
H         -0.69624        1.28524       -0.18452
C         -1.80010       -0.51731       -1.98882
C         -1.95321       -1.97021        0.07113
H         -4.07552       -0.27450       -0.42976
H         -3.27355        0.24708        1.08451
H         -3.17366        1.27139       -0.38166
H         -1.98319       -1.99585        1.17906
H         -1.08140       -2.56742       -0.25918
H         -2.86422       -2.48005       -0.30104
H         -0.91939       -1.08112       -2.35220
H         -1.73156        0.51555       -2.38618
H         -2.69953       -0.98876       -2.43256
H          2.73540        1.11534        2.39525
H          1.96031       -0.49870        2.42517
H          0.95562        0.98370        2.40928
