28
2,2,4-TRIMETHYL-1,3-PENTANEDIOL.gamout	Energy:    -465.8134718
O          0.86800       -2.31403       -2.74450
O          3.09137       -0.58772        1.28199
C          2.06875       -1.36157       -0.78399
C          0.82441       -2.16597       -1.31834
C         -0.60342       -1.67762       -0.96171
C          1.88246       -1.12292        0.72868
C          3.31515       -2.25812       -0.99301
C          2.29567       -0.02318       -1.51812
C         -1.02538       -0.35965       -1.63781
C         -1.62229       -2.79082       -1.28118
H          0.91381       -3.17674       -0.85210
H         -0.61915       -1.53030        0.13897
H          1.62305       -2.08658        1.22957
H          1.04157       -0.41448        0.89327
H          4.21224       -1.78254       -0.55808
H          3.18653       -3.24863       -0.51151
H          3.52262       -2.41743       -2.07114
H          1.53406        0.73422       -1.25912
H          2.26476       -0.17261       -2.61316
H          3.28292        0.39670       -1.25045
H         -0.48006        0.51547       -1.24104
H         -2.10513       -0.17655       -1.47386
H         -0.84945       -0.40660       -2.72896
H         -1.68738       -2.96373       -2.37240
H         -1.34023       -3.74910       -0.80104
H         -2.63022       -2.51281       -0.91711
H          1.67336       -2.80300       -2.98446
H          2.91656       -0.29150        2.19042
