29
2,2,4,4-TETRAMETHYLPENTANE.gamout	Energy:    -354.7577325
C          3.31715        2.08524        1.67384
C          1.81008        1.90157        2.05049
C          4.37338        2.82584        2.55958
C          1.59105        1.37562        3.48531
C          1.24556        0.85156        1.06155
C          1.00205        3.20669        1.85522
C          3.89947        4.20935        3.05408
C          5.61346        3.03969        1.65529
C          4.81468        1.96944        3.76958
H          3.32176        2.58067        0.67843
H          3.73430        1.07112        1.49118
H          1.87327        2.12368        4.24972
H          2.17360        0.45261        3.67263
H          0.52115        1.13372        3.64362
H          1.74139       -0.13103        1.19278
H          1.39603        1.16941        0.01015
H          0.15771        0.70734        1.21682
H         -0.07977        3.01362        2.00069
H          1.13583        3.60810        0.83066
H          1.29240        3.99801        2.56846
H          3.07714        4.12802        3.78921
H          4.73275        4.74525        3.55067
H          3.55018        4.84136        2.21413
H          5.98399        2.07832        1.24609
H          6.44264        3.50653        2.22374
H          5.37263        3.70251        0.80051
H          4.00327        1.82330        4.50391
H          5.65612        2.45788        4.30073
H          5.16233        0.96946        3.44145
