23
2,2,3-TRIMETHYLBUTANE.gamout	Energy:    -276.1918051
C          3.26773        1.87092        2.39915
C          1.72218        2.05150        2.16700
C          1.11811        2.89449        3.31495
C          1.41698        2.74345        0.82020
C          1.03457        0.66514        2.19063
C          4.04429        3.19516        2.53446
C          3.95724        0.98232        1.34535
H          3.35317        1.34376        3.37722
H          1.36395        2.45855        4.30461
H          0.01428        2.93190        3.22859
H          1.48202        3.93925        3.30256
H          1.79217        2.15458       -0.03880
H          0.32276        2.85937        0.68804
H          1.86434        3.75480        0.76412
H          1.28982        0.11313        3.11766
H          1.32876        0.03868        1.32755
H         -0.06708        0.77711        2.15580
H          4.04974        3.76456        1.58309
H          3.63487        3.85236        3.32360
H          5.10120        2.98971        2.79475
H          5.01977        0.82626        1.61590
H          3.94348        1.45785        0.34408
H          3.48997       -0.01580        1.25578
