11
2,2-DICHLOROPROPANE.gamout	Energy:   -1038.0695985
C          2.09006        0.38773        1.62065
C          2.05179        1.90960        1.65474
C          0.99079        2.49953        2.57352
Cl         3.69721        2.52313        2.19322
Cl         1.75808        2.52581       -0.05042
H          2.29286        0.00171        2.63897
H          2.87883        0.02904        0.93645
H          1.11086        0.00177        1.27625
H          1.01806        3.60303        2.55018
H          1.17155        2.15658        3.61121
H         -0.01083        2.15639        2.24869
