29
2,2-DIMETHYLHEPTANE.gamout	Energy:    -354.7620964
C          4.50375        3.82696        1.10529
C          3.21988        3.58355        1.93456
C          2.64988        2.15893        1.82502
C          1.37122        1.93412        2.64564
C          0.79997        0.51819        2.50073
C          5.87213        3.70598        1.84153
C          6.01412        2.33764        2.54232
C          6.02110        4.83638        2.88335
C          6.99515        3.85210        0.79112
H          4.46599        4.84281        0.65830
H          4.50932        3.12378        0.24462
H          2.43207        4.29239        1.60232
H          3.39813        3.82996        3.00326
H          2.43914        1.94241        0.75392
H          3.41621        1.41859        2.13610
H          0.60573        2.67944        2.33772
H          1.58374        2.14402        3.71678
H          0.54863        0.29561        1.44351
H         -0.12226        0.38297        3.09940
H          1.53175       -0.24540        2.83525
H          7.01136        2.24077        3.01617
H          5.90090        1.50326        1.82205
H          5.25581        2.20841        3.33899
H          5.24278        4.78696        3.67030
H          5.94980        5.83176        2.40011
H          7.00520        4.77783        3.39048
H          7.99458        3.80578        1.26865
H          6.92257        4.82102        0.25656
H          6.94521        3.04456        0.03288
