29
2,2-DIMETHYL-3-ETHYLPENTANE.gamout	Energy:    -354.7571862
C          3.48869        2.14094        2.59734
C          1.91859        2.17359        2.72220
C          4.07879        3.33366        1.78519
C          4.21013        2.00673        3.96048
C          1.28105        2.33940        1.32406
C          1.44450        3.32624        3.63479
C          1.41023        0.83151        3.30093
C          4.51085        2.98765        0.35337
C          5.65450        1.50239        3.83918
H          3.71406        1.21053        2.02615
H          4.95785        3.74264        2.32420
H          3.34991        4.16933        1.75721
H          3.65259        1.31531        4.62237
H          4.20484        2.99182        4.47484
H          0.17565        2.30811        1.39799
H          1.59276        1.52090        0.64488
H          1.54760        3.30122        0.84532
H          1.81452        3.20978        4.67160
H          0.33736        3.35368        3.68024
H          1.78358        4.31310        3.26263
H          0.30224        0.80829        3.30836
H          1.74655        0.66324        4.34184
H          1.75835       -0.02450        2.68810
H          4.92282        3.87272       -0.17067
H          3.66352        2.60697       -0.24949
H          5.29461        2.20343        0.35552
H          5.68516        0.49169        3.38335
H          6.14461        1.43695        4.83041
H          6.27608        2.16983        3.20913
