24
2,2-DIMETHYL-CIS-3-HEXENE.gamout	Energy:    -314.2452561
C          3.06844        2.17616        1.01346
C          2.10357        2.35560        2.19467
C          4.41703        2.08551        0.99836
C          2.21734        1.16974        3.18564
C          2.37054        3.69324        2.93054
C          0.66063        2.38707        1.63604
C          5.40315        2.11425        2.13949
C          6.27954        0.84774        2.19881
H          2.57909        2.11533        0.02610
H          4.88197        1.95718        0.00346
H          1.47529        1.27455        4.00409
H          2.02546        0.20784        2.67165
H          3.21990        1.11113        3.64821
H          1.63578        3.83484        3.74992
H          3.38230        3.72759        3.37498
H          2.27816        4.55052        2.23575
H         -0.07766        2.51570        2.45211
H          0.41955        1.44520        1.10404
H          0.52757        3.22425        0.92218
H          4.88782        2.25702        3.10707
H          6.06523        3.00028        2.01107
H          7.02838        0.91781        3.01200
H          5.66026       -0.05366        2.37606
H          6.82637        0.69534        1.24648
