21
2,2-DIMETHYL-1-BUTANOL.gamout	Energy:    -312.0771112
C         -0.00374        1.26612       -0.95483
C         -0.02622       -0.00002       -0.07161
C          1.21607        0.00001        0.84696
O          2.41036        0.00000        0.05824
C         -1.26231       -0.00000        0.87481
C         -2.64180        0.00001        0.20229
C         -0.00374       -1.26614       -0.95484
H          0.90486        1.28457       -1.58435
H         -0.88365        1.30499       -1.62502
H         -0.00679        2.18520       -0.33400
H          1.18183        0.90106        1.50347
H          1.18186       -0.90101        1.50353
H          3.18109        0.00003        0.64943
H         -1.18773       -0.88689        1.54098
H         -1.18771        0.88691        1.54095
H         -2.79375        0.89518       -0.43130
H         -2.79377       -0.89518       -0.43127
H         -3.44158        0.00003        0.96792
H          0.90485       -1.28458       -1.58437
H         -0.00678       -2.18524       -0.33405
H         -0.88365       -1.30500       -1.62502
