15
2,2-DINITROPROPANE.gamout	Energy:    -527.8270667
C          1.01388        0.06019        0.05621
C          2.52509       -0.08415        0.11102
C          3.03404       -1.39715        0.68024
N          3.07779        0.14942       -1.33185
O          2.92614        1.27904       -1.78763
O          3.57057       -0.81363       -1.90996
N          3.16434        1.07518        0.94160
O          2.41494        1.74843        1.64109
O          4.38444        1.18390        0.85918
H          0.72404        1.04871       -0.33964
H          0.59597       -0.05554        1.07174
H          0.59832       -0.73297       -0.59349
H          2.68062       -1.49865        1.72369
H          4.13658       -1.43456        0.66044
H          2.63365       -2.23660        0.08500
