20
2,2-DIMETHYLBUTANOIC_ACID.gamout	Energy:    -386.0802417
O          1.07216       -0.01345       -1.37126
O          1.29517       -0.66709        0.77668
C         -0.64224        0.70753        0.20176
C         -1.66036       -0.30264        0.81592
C         -0.30609        1.78334        1.26693
C         -1.20954        1.38509       -1.06114
C          0.66042       -0.06178       -0.07171
C         -2.04805       -1.48576       -0.07841
H         -1.22472       -0.68068        1.76204
H         -2.56505        0.27885        1.09184
H         -1.22317        2.34747        1.52691
H          0.09621        1.31732        2.18530
H          0.44207        2.50444        0.88475
H         -0.50068        2.12964       -1.46852
H         -2.14980        1.91233       -0.80684
H         -1.42607        0.65970       -1.86544
H         -2.75147       -2.15626        0.45173
H         -2.54390       -1.15983       -1.01317
H         -1.16294       -2.09315       -0.35393
H          1.90506       -0.53010       -1.41093
