24
2,2-DIMETHYL-3-PENTANOL.gamout	Energy:    -351.3659164
C          1.33418        1.61426        0.47278
C          1.04598        0.17364       -0.00656
C          2.00068       -0.79032        0.73383
C         -0.42625       -0.22702        0.35148
C         -1.52311        0.65578       -0.26994
C         -2.93142        0.30798        0.23147
O         -0.67774       -1.61507        0.07075
C          1.29997        0.07710       -1.52648
H          2.40948        1.84878        0.34565
H          0.76199        2.37090       -0.09780
H          1.08988        1.73764        1.54720
H          1.88015       -0.69824        1.83219
H          1.80163       -1.84264        0.46002
H          3.05549       -0.55721        0.48808
H         -0.51381       -0.16339        1.45819
H         -1.30561        1.72028       -0.05010
H         -1.48385        0.55629       -1.37673
H         -3.00931        0.45856        1.32698
H         -3.69658        0.94505       -0.25234
H         -3.17790       -0.74980        0.02189
H         -0.72777       -1.72504       -0.89634
H          2.36136        0.29713       -1.75404
H          1.09569       -0.94187       -1.91476
H          0.68345        0.79665       -2.09936
