32
2,3,4,5-TETRAMETHYLHEXANE.gamout	Energy:    -394.0388099
C          0.79243       19.75367       -0.08596
C          1.40817       21.04438        0.48999
C          0.84567       22.37446       -0.11893
C          1.25754       21.04754        2.02366
C          1.60071       22.92419       -1.37661
C         -0.66989       22.30481       -0.38597
C          2.82736       23.83738       -1.05572
C          1.95452       21.85278       -2.42292
C          2.40079       25.16045       -0.39420
C          3.95751       23.17329       -0.24870
H          1.30878       18.86710        0.33233
H         -0.27915       19.66186        0.18076
H          0.87049       19.69340       -1.18609
H          2.49445       21.01287        0.27264
H          0.97621       23.14392        0.67150
H          1.79444       21.90159        2.48255
H          1.65887       20.11583        2.46900
H          0.19081       21.12338        2.31889
H          0.87695       23.60913       -1.87332
H         -1.06826       23.31255       -0.61503
H         -1.23024       21.92190        0.48956
H         -0.91052       21.65016       -1.24747
H          3.25398       24.10198       -2.05004
H          2.39955       22.32412       -3.32131
H          1.05844       21.29494       -2.75530
H          2.68748       21.11664       -2.03873
H          3.26125       25.85261       -0.29939
H          1.61777       25.67538       -0.98573
H          2.00287       24.99952        0.62857
H          4.83133       23.85121       -0.18418
H          4.30872       22.22889       -0.70765
H          3.64089       22.95350        0.79071
