29
2,3,5-TRIMETHYLHEXANE.gamout	Energy:    -354.7621015
C          3.83387        1.92541        1.92343
C          2.62995        2.58250        2.63653
C          1.52411        3.07509        1.65178
C          2.04624        1.65718        3.71932
C          5.15216        1.88366        2.73079
C          1.96206        4.32392        0.86767
C          1.01344        1.97720        0.69994
C          6.16128        0.92885        2.06980
C          5.76463        3.28418        2.90963
H          4.03682        2.44774        0.96373
H          3.55561        0.88594        1.64648
H          2.99403        3.49784        3.15306
H          0.66660        3.37910        2.29292
H          2.81460        1.35544        4.45735
H          1.63365        0.72810        3.27685
H          1.23050        2.15879        4.27683
H          4.92626        1.47916        3.74263
H          2.28652        5.13430        1.55067
H          2.80471        4.10561        0.18028
H          1.13041        4.71581        0.24942
H          1.78959        1.68622       -0.03660
H          0.13473        2.33306        0.12727
H          0.70778        1.06278        1.24424
H          7.09675        0.85577        2.65892
H          6.43354        1.28327        1.05344
H          5.74319       -0.09233        1.96704
H          6.01544        3.72591        1.92276
H          6.69730        3.23996        3.50560
H          5.07324        3.98024        3.42243
