26
2,3,4-TRIMETHYLPENTANE.gamout	Energy:    -315.4734714
C          0.54777        4.15665        0.84922
C          1.52523        3.01218        0.42088
C          1.38615        2.55520       -1.06395
C          1.51689        1.81795        1.39188
C          1.24000        5.12992        1.82346
C         -0.78708        3.67363        1.44894
C          1.83912        3.65080       -2.04651
C         -0.00714        2.02369       -1.44890
H          0.30240        4.73918       -0.06457
H          2.54627        3.45038        0.48334
H          2.09833        1.70659       -1.17619
H          0.56920        1.24569        1.35242
H          2.33851        1.11436        1.15232
H          1.65948        2.14688        2.43972
H          0.56029        5.95330        2.11971
H          1.55522        4.60994        2.75159
H          2.14340        5.57962        1.36666
H         -1.47229        4.53141        1.59952
H         -1.30669        2.94301        0.80241
H         -0.63943        3.19900        2.43959
H          1.85827        3.26773       -3.08584
H          1.15150        4.52084       -2.03278
H          2.85482        4.01942       -1.80055
H         -0.76623        2.83121       -1.44109
H          0.01174        1.60302       -2.47342
H         -0.34875        1.22091       -0.76792
