21
2,3,3-TRIMETHYL-1-BUTENE.gamout	Energy:    -274.9638024
C          3.29506        2.28587        2.06558
C          1.77206        2.18670        1.83470
C          1.28928        3.41526        1.01871
C          1.38527        0.90949        1.06243
C          1.03838        2.16547        3.20242
C          3.80491        3.48635        2.83611
C          4.17044        1.36051        1.61486
H          0.20079        3.33932        0.82388
H          1.46376        4.36645        1.55674
H          1.80893        3.47370        0.04208
H          1.68549       -0.00480        1.61051
H          1.85241        0.87936        0.05863
H          0.28776        0.87126        0.92192
H         -0.05372        2.06131        3.04551
H          1.38032        1.31293        3.82120
H          1.20288        3.09607        3.77828
H          3.38279        3.52823        3.86110
H          4.90621        3.45681        2.92725
H          3.53230        4.44234        2.34388
H          3.86495        0.46826        1.05349
H          5.24857        1.47327        1.80136
