29
2,3,4-TRIMETHYLHEXANE.gamout	Energy:    -354.7572345
C          2.04820        1.68436        4.38391
C          3.10942        1.15260        3.36954
C          3.31820        2.05546        2.10675
C          4.42572        0.76715        4.06794
C          2.36335        3.08351        4.96101
C          0.62792        1.61903        3.79067
C          4.45486        3.08873        2.22954
C          3.52410        1.19177        0.84771
C          1.54877        3.44889        6.21063
H          2.07539        0.97018        5.23873
H          2.67794        0.20025        2.98987
H          2.37735        2.62604        1.95317
H          4.24034       -0.00195        4.84321
H          4.90907        1.63134        4.56396
H          5.15855        0.34565        3.35253
H          2.19212        3.84889        4.17377
H          3.44054        3.14370        5.21756
H          0.38787        0.59305        3.44757
H          0.51926        2.30004        2.92208
H         -0.14117        1.90699        4.53205
H          4.46839        3.74623        1.33800
H          5.44589        2.59632        2.28629
H          4.34972        3.73667        3.11909
H          4.42813        0.55486        0.94155
H          3.65439        1.82062       -0.05530
H          2.65877        0.52231        0.67376
H          0.46037        3.46962        6.00746
H          1.83057        4.44920        6.59318
H          1.72308        2.71643        7.02471
