32
2,3,3,4-TETRAMETHYLHEXANE.gamout	Energy:    -394.0396704
C          0.72617       35.94816       -1.55269
C          0.84271       36.38740       -0.08614
C          1.95623       37.43365        0.17210
C          1.73020       38.27771        1.48953
C          3.33777       36.75291        0.11057
C          0.50142       39.24910        1.28442
C          1.46553       37.32156        2.67714
C          2.99767       39.10122        1.81703
C         -0.04517       39.85067        2.59364
C          0.77816       40.38746        0.28326
H         -0.08177       35.20216       -1.68491
H          0.49673       36.81032       -2.21130
H          1.66214       35.48545       -1.92384
H          1.02756       35.49513        0.54952
H         -0.13910       36.78824        0.23682
H          1.92519       38.15433       -0.67457
H          4.16724       37.48323        0.09174
H          3.43117       36.13964       -0.80545
H          3.49756       36.07522        0.97363
H         -0.31909       38.63189        0.85941
H          1.50274       37.86054        3.64231
H          2.23562       36.52770        2.72216
H          0.47666       36.82873        2.60774
H          3.37033       39.66813        0.94218
H          2.79897       39.82850        2.62789
H          3.81877       38.44715        2.16504
H         -0.88928       40.53342        2.37456
H         -0.41951       39.07998        3.29217
H          0.72421       40.44777        3.12454
H         -0.15742       40.93421        0.05395
H          1.18990       40.02607       -0.67772
H          1.49244       41.12485        0.70071
