24
2,3,4-TRIMETHYL-2-PENTENE.gamout	Energy:    -314.2528754
C          4.48572        2.77619        2.05310
C          3.20351        2.03742        1.65739
C          1.96230        2.59353        1.77208
C          3.42451        0.63349        1.12437
C          5.26155        3.27119        0.81191
C          5.39008        1.92990        2.97487
C          1.70026        4.00420        2.25952
C          0.68047        1.86420        1.42587
H          4.20295        3.67166        2.63835
H          2.60331        0.27866        0.47831
H          4.35469        0.57516        0.52451
H          3.54071       -0.10406        1.94801
H          4.63588        3.94307        0.19335
H          5.58361        2.42467        0.17281
H          6.17375        3.82606        1.11112
H          5.79095        1.03365        2.46097
H          6.25932        2.52690        3.31438
H          4.83988        1.58892        3.87371
H          1.03841        4.53800        1.54414
H          2.60862        4.61586        2.38742
H          1.15595        3.99561        3.22924
H         -0.03952        1.94049        2.26866
H          0.17808        2.33428        0.55190
H          0.81761        0.79263        1.20453
