15
2,3,4,5,6-PENTAFLUOROTOLUENE.gamout	Energy:    -767.1973662
C          6.36166        1.87924       -0.67571
C          7.26559        3.04674       -0.98502
C          6.85497        0.60636       -0.33606
C          4.96107        2.01434       -0.71378
F          8.18769        0.39719       -0.27875
C          6.01049       -0.48020       -0.04792
F          4.42596        3.21213       -1.03344
C          4.08638        0.95332       -0.43239
F          6.52349       -1.67826        0.27182
C          4.61780       -0.30429       -0.09671
F          2.75692        1.12826       -0.48109
F          3.79859       -1.32980        0.17537
H          8.32550        2.75406       -0.90251
H          7.08282        3.42573       -2.00974
H          7.07486        3.88589       -0.28752
