26
2,3,3-TRIMETHYLPENTANE.gamout	Energy:    -315.4737777
C          4.27779        1.86665        2.80132
C          2.92200        2.08189        2.02427
C          1.98780        2.97347        2.89935
C          2.25302        0.70614        1.80108
C          3.15505        2.75658        0.65423
C          4.94494        3.16811        3.28886
C          5.31639        1.03016        2.02922
C          0.52384        3.09738        2.45263
H          4.00042        1.28374        3.70951
H          2.42094        3.99298        2.94917
H          2.01083        2.58200        3.94013
H          2.03988        0.20585        2.76798
H          1.29675        0.80543        1.25369
H          2.89314        0.03000        1.20461
H          2.19391        2.92662        0.13237
H          3.65538        3.73928        0.75712
H          3.77603        2.12642       -0.01078
H          5.88643        2.93171        3.82221
H          5.20726        3.83311        2.44174
H          4.30907        3.74042        3.98880
H          5.70774        1.57572        1.14680
H          6.18402        0.80642        2.68035
H          4.91442        0.06164        1.67814
H          0.43352        3.46198        1.41032
H         -0.01220        3.82155        3.09662
H         -0.02026        2.13579        2.52234
