29
2,3-DIMETHYLHEPTANE.gamout	Energy:    -354.7617534
C          2.18941        1.78847        0.19755
C          2.14873        0.32225       -0.27588
C          3.42872       -0.40001        0.18751
C          0.85263       -0.41019        0.18556
C         -0.42214        0.25860       -0.38034
C         -1.74877       -0.23344        0.21962
C         -2.97060        0.53091       -0.31642
C         -4.29932        0.07356        0.29696
C          0.87721       -1.91113       -0.15971
H          3.14949        2.26544       -0.08090
H          1.38109        2.40316       -0.24029
H          2.09698        1.84465        1.30236
H          2.14545        0.31924       -1.39078
H          3.43534       -0.52722        1.29046
H          3.54074       -1.40011       -0.27073
H          4.32723        0.18783       -0.08420
H          0.81242       -0.31909        1.29729
H         -0.37150        1.35352       -0.21497
H         -0.43837        0.11827       -1.48498
H         -1.89345       -1.31620        0.02114
H         -1.70861       -0.12843        1.32693
H         -2.82841        1.61735       -0.12906
H         -3.00939        0.41695       -1.42152
H         -4.48493       -1.00192        0.09852
H         -4.30244        0.21382        1.39719
H         -5.15556        0.64214       -0.11576
H          1.69765       -2.44586        0.35312
H         -0.06408       -2.40928        0.13865
H          1.00324       -2.06185       -1.25259
