16
2,3-BUTANEDIOL.gamout	Energy:    -308.6819592
C         10.02084       16.96044       -0.54243
C         11.50175       16.55041       -0.30580
C         12.32256       17.56154        0.49938
O         11.57535       15.23331        0.26122
C          9.20087       17.15133        0.73651
O          9.94883       18.11094       -1.39794
H          9.56972       16.13943       -1.13598
H         11.95474       16.44505       -1.31269
H         13.37097       17.21808        0.57636
H         12.32898       18.55454        0.00659
H         11.92381       17.69024        1.52679
H         11.35517       15.28783        1.20875
H          8.14642       17.36548        0.48121
H          9.21814       16.23673        1.36257
H          9.58634       17.99263        1.34898
H         10.15083       18.90540       -0.87128
