27
2,3-DIMETHYL-2-HEPTENE.gamout	Energy:    -353.5383652
C          6.64720        3.68282        1.00099
C          5.38164        3.94163        1.78910
C          4.91946        3.14013        2.79240
C          4.66926        5.20490        1.35151
C          3.62738        3.44372        3.54819
C          5.63409        1.89498        3.27359
C          2.32261        3.06954        2.80540
C          2.17984        1.57964        2.46136
C          0.85092        1.24409        1.77212
H          7.37741        4.50801        1.15254
H          6.42960        3.66262       -0.08912
H          7.15311        2.73743        1.25906
H          4.29518        5.10963        0.30877
H          5.37349        6.06499        1.34689
H          3.81199        5.47284        1.99127
H          3.58006        4.51888        3.81753
H          3.64685        2.89619        4.51498
H          4.95327        1.01796        3.26697
H          5.95896        2.02151        4.32971
H          6.52493        1.63481        2.67811
H          1.46024        3.38041        3.43584
H          2.24750        3.66080        1.86757
H          3.02189        1.27526        1.80480
H          2.27613        0.97896        3.39256
H          0.73791        1.80552        0.82215
H         -0.01300        1.50572        2.41689
H          0.77745        0.16481        1.53389
