19
2,3-XYLENOL.gamout	Energy:    -385.8436056
C          1.27248        1.65819       -0.58524
C          1.93268        0.90059        0.41134
C          1.90081        2.91779       -1.13345
H          2.87575        3.12047       -0.66032
H          1.24819        3.79991       -0.96566
H          2.06004        2.84383       -2.22947
C          0.01052        1.20254       -1.05147
C         -0.55376        0.02289       -0.52273
C          0.11826       -0.71315        0.46470
C          1.36439       -0.27609        0.93514
C         -0.72335        1.98729       -2.11489
H         -0.12639        2.06828       -3.04733
H         -1.68809        1.51201       -2.37031
H         -0.93338        3.02581       -1.78344
H         -1.53137       -0.31874       -0.89270
H         -0.32720       -1.63177        0.87298
H          1.90183       -0.84504        1.71041
O          3.15622        1.35698        0.85328
H          3.49740        0.74878        1.53187
