24
2,3-DIMETHYLNAPHTHALENE.gamout	Energy:    -464.2041469
C          5.83450        3.18742        1.19038
C          7.13136        3.94528        1.02617
C          4.61178        3.83163        1.02674
C          5.85105        1.78330        1.52217
C          3.36426        3.15629        1.17842
C          7.16415        1.05745        1.70133
C          4.64368        1.10761        1.67186
C          3.38104        1.75177        1.51243
C          2.10613        3.81141        1.01493
C          2.13908        1.06497        1.66941
C          0.91453        3.11515        1.17392
C          0.93120        1.73113        1.50599
H          7.73879        3.92037        1.95504
H          7.76377        3.50851        0.22500
H          6.94532        5.00445        0.77094
H          4.59711        4.90446        0.77701
H          6.99994       -0.00491        1.95790
H          7.78115        1.09514        0.77921
H          7.77722        1.51066        2.50842
H          4.65383        0.03503        1.92293
H          2.09282        4.88270        0.76159
H          2.15206       -0.00635        1.92261
H         -0.04648        3.63502        1.04587
H         -0.01697        1.18770        1.63207
