32
2,3-DIMETHYL-4-ETHYLHEXANE.gamout	Energy:    -394.0368318
C          0.16011       29.30749       -1.06932
C          1.30692       30.02658       -0.34597
C          1.01711       31.47441        0.12487
C          0.13668       31.61790        1.42685
C          2.33895       32.26768        0.29835
C         -1.21395       32.36542        1.19357
C         -0.06042       30.32443        2.23819
C         -0.99356       33.81217        0.71595
C         -2.20212       31.62845        0.27369
C          3.13440       32.52136       -0.98916
H          0.47867       28.30401       -1.41368
H         -0.72913       29.17062       -0.42578
H         -0.16460       29.87817       -1.96307
H          2.16809       30.06152       -1.04293
H          1.65353       29.41565        0.51275
H          0.46908       31.96693       -0.70937
H          0.70510       32.29316        2.10405
H          2.09618       33.24889        0.75616
H          2.97771       31.73950        1.04125
H         -1.69276       32.43011        2.19679
H         -0.63910       30.53948        3.15834
H          0.90753       29.89429        2.55927
H         -0.60583       29.53729        1.68373
H         -1.95422       34.36079        0.65737
H         -0.32864       34.36875        1.40614
H         -0.53881       33.84808       -0.29505
H         -3.16140       32.17930        0.21512
H         -2.42952       30.60839        0.63827
H         -1.80932       31.54062       -0.75883
H          4.01694       33.15951       -0.78815
H          3.50691       31.58663       -1.45177
H          2.50917       33.04275       -1.74284
