23
2,3-DIMETHYLPENTANE.gamout	Energy:    -276.1910796
C          4.38601        2.63591        2.76040
C          3.28357        2.03072        1.83881
C          1.91835        2.73021        2.04287
C          3.14863        0.50720        2.02080
C          4.62564        4.13343        2.48400
C          5.72457        1.88026        2.65469
C          0.83401        2.35851        1.02023
H          4.02167        2.53502        3.80945
H          3.60225        2.22191        0.78622
H          1.55351        2.50963        3.07099
H          2.05957        3.82793        2.00242
H          2.93279        0.25735        3.08100
H          2.32396        0.09882        1.40769
H          4.06661       -0.03257        1.72398
H          5.44642        4.52120        3.11879
H          4.91899        4.29358        1.42538
H          3.73417        4.75525        2.68664
H          6.09947        1.89036        1.60950
H          6.49495        2.36247        3.28760
H          5.64447        0.82617        2.97805
H          0.57737        1.28169        1.04607
H         -0.09970        2.92170        1.21318
H          1.16299        2.59968       -0.01128
