26
2,3-DIMETHYLHEXANE.gamout	Energy:    -315.4764445
C          1.65698        1.79853        0.11556
C          1.59834        0.32031       -0.31615
C          2.89666       -0.38996        0.11394
C          0.32306       -0.40145        0.21533
C         -0.97643        0.26651       -0.29216
C         -2.27495       -0.24659        0.35398
C         -3.51461        0.54269       -0.08802
C          0.32824       -1.90640       -0.11359
H          2.60232        2.26849       -0.21963
H          0.82830        2.40049       -0.30129
H          1.61614        1.88601        1.22160
H          1.55076        0.28857       -1.42960
H          2.99508       -1.39872       -0.32807
H          3.78321        0.19437       -0.20101
H          2.94308       -0.49594        1.21822
H          0.33630       -0.29626        1.32662
H         -0.92646        1.35883       -0.10890
H         -1.03606        0.14495       -1.39761
H         -2.42785       -1.31967        0.11842
H         -2.17162       -0.18698        1.45940
H         -3.42115        1.61621        0.17463
H         -3.65756        0.48142       -1.18605
H         -4.43531        0.15813        0.39240
H          1.18344       -2.43263        0.34863
H         -0.58872       -2.40359        0.25345
H          0.38130       -2.06890       -1.21076
