18
2,3-DIMETHYL-1-BUTENE.gamout	Energy:    -235.6800453
C          2.93159        2.05279        2.49607
C          1.60138        2.37782        1.81566
C          0.78218        3.38999        2.65265
C          1.73395        2.86314        0.36461
C          2.83810        1.22749        3.76036
C          4.12633        2.46239        2.01856
H          1.02188        1.42565        1.80012
H         -0.20750        3.56884        2.18691
H          1.31488        4.36029        2.71281
H          0.60598        3.03301        3.68507
H          2.23759        3.84983        0.31038
H          0.73445        2.98201       -0.09667
H          2.31347        2.14900       -0.25178
H          2.32812        0.25962        3.56473
H          2.24268        1.74070        4.54440
H          3.83802        1.01216        4.18030
H          4.22095        3.05353        1.09768
H          5.06002        2.21630        2.54542
