16
2,3-DIMETHYL-1,3-BUTADIENE.gamout	Energy:    -234.4579313
C          1.81591        2.19576        1.22756
C          3.28046        2.12481        0.98047
C          3.96957        0.78383        1.12092
C          3.99704        3.22668        0.63684
C          1.12678        3.53670        1.08690
C          1.09944        1.09399        1.57172
H          5.05092        0.87094        0.91133
H          3.84967        0.37515        2.14553
H          3.54356        0.03556        0.42090
H          5.07940        3.16185        0.45625
H          3.54068        4.21887        0.52370
H          1.24709        3.94549        0.06238
H          0.04535        3.44953        1.29602
H          1.55250        4.28494        1.78714
H          1.55588        0.10189        1.68529
H          0.01706        1.15879        1.75218
