15
2,3-DIMETHYLTHIOPHENE.gamout	Energy:    -631.4033699
C         -5.10846       -1.90105       -2.23367
C         -4.95096       -0.76325       -1.25594
C         -5.98365       -0.16710       -0.53829
C         -3.67001       -0.17588       -0.95553
C         -7.45262       -0.48236       -0.53406
S         -5.36526        1.10918        0.49983
C         -3.73000        0.84176       -0.02898
H         -4.60997       -1.66854       -3.19689
H         -4.64528       -2.83240       -1.84558
H         -6.16855       -2.12587       -2.45182
H         -2.73245       -0.50634       -1.42437
H         -7.71080       -1.13604       -1.38778
H         -7.76551       -1.00661        0.39333
H         -8.07040        0.43430       -0.61787
H         -2.91408        1.45430        0.36962
