13
2,3-PENTADIENE.gamout	Energy:    -195.1525386
C          2.08322        2.96620        1.97814
C          0.81863        2.42546        2.60774
C          3.08477        2.23775        1.51632
C          4.08792        1.51215        1.05359
C          5.29464        1.06860        1.85044
H          2.16587        4.06728        1.89937
H          0.68895        2.82028        3.63718
H         -0.07562        2.73668        2.02764
H          0.83463        1.32094        2.65702
H          4.05142        1.19666       -0.00689
H          5.36576       -0.03911        1.87881
H          6.23237        1.43958        1.38584
H          5.24946        1.44150        2.89037
