24
2,3-DIMETHYL-1-HEXENE.gamout	Energy:    -314.2463383
C          4.24810        0.73222        2.08342
C          4.43080        2.03175        1.28795
C          3.14273        2.68907        0.75610
C          2.17289        3.22350        1.83729
C          1.30539        4.37612        1.27576
C          1.25974        2.18147        2.49332
C          0.99627        2.39732        3.96516
C          0.67369        1.17669        1.80998
H          3.73878       -0.04285        1.47668
H          3.63662        0.88563        2.99320
H          5.22834        0.32539        2.40170
H          4.96924        2.77430        1.91735
H          5.09953        1.83327        0.42399
H          3.44016        3.54691        0.11720
H          2.60922        1.98761        0.08014
H          2.79941        3.65674        2.65012
H          0.58732        4.75415        2.02909
H          0.71928        4.02688        0.40215
H          1.93872        5.22530        0.95005
H          0.27456        1.66531        4.37216
H          0.60303        3.41832        4.15692
H          1.94075        2.31780        4.54550
H         -0.01611        0.47616        2.30316
H          0.85627        1.01015        0.73860
