17
2,3-DICHLORO-2-METHYLBUTANE.gamout	Energy:   -1116.6414096
C         41.01128       20.06032        0.02234
C         39.46044       20.07338        0.03648
C         38.84703       20.67497        1.30065
C         38.92582       20.74875       -1.23493
Cl        38.91067       18.29709       -0.05638
C         41.65833       21.44158       -0.07824
Cl        41.68665       19.21637        1.50661
H         41.33529       19.41897       -0.81823
H         37.74420       20.63727        1.24197
H         39.17713       20.13151        2.20260
H         39.14933       21.73750        1.39663
H         37.83463       20.59226       -1.30661
H         39.39719       20.33300       -2.14524
H         39.11216       21.84020       -1.19978
H         42.75810       21.33931       -0.06386
H         41.37549       21.93683       -1.02741
H         41.36252       22.09088        0.76652
