18
2,3-DIMETHYLBUTENE.gamout	Energy:    -235.6799951
C          3.17020        3.04817        0.49136
C          3.32327        4.57485        0.43325
C          3.90426        2.38256       -0.69700
C          1.72426        2.56051        0.59425
C          1.54909        1.10709        0.97490
C          0.65693        3.35705        0.36972
H          3.67546        2.69825        1.42249
H          2.80752        5.06984        1.27864
H          2.91026        4.98693       -0.50974
H          4.39364        4.85420        0.47363
H          3.41696        2.65439       -1.65500
H          3.91343        1.27890       -0.61946
H          4.95841        2.72239       -0.74110
H          1.98280        0.42733        0.21170
H          0.48266        0.84067        1.09412
H          2.07633        0.88373        1.92688
H         -0.36780        2.96634        0.45565
H          0.76032        4.41564        0.09514
