24
2,3-DIMETHYL-TRANS-3-HEXENE.gamout	Energy:    -314.2521538
C          0.82112        0.69550       -0.80838
C          2.17744        0.30416       -0.17382
C          3.17721       -0.13102       -1.25034
C          4.15815        0.69320       -1.69192
C          5.19307        0.44011       -2.75899
C          5.08099        1.42038       -3.94475
C          2.96721       -1.53716       -1.76490
C          2.67714        1.42069        0.75693
H          0.07007        0.91954       -0.02407
H          0.41053       -0.11179       -1.44487
H          0.93849        1.59892       -1.44046
H          1.98987       -0.59229        0.46163
H          4.22684        1.69550       -1.23535
H          5.13774       -0.60124       -3.13232
H          6.20476        0.54963       -2.30671
H          4.10789        1.30641       -4.46219
H          5.88865        1.24769       -4.68359
H          5.15543        2.47214       -3.60109
H          1.91595       -1.69613       -2.08452
H          3.16234       -2.27671       -0.95817
H          3.61866       -1.78926       -2.61978
H          2.78133        2.38634        0.22174
H          3.65921        1.16868        1.20208
H          1.95726        1.58486        1.58254
