24
2,3-DIMETHYL-2-PENTANOL.gamout	Energy:    -351.3667083
C          1.29238        0.07447       -1.53154
C          0.99506        0.17356       -0.02419
C          1.29343        1.59756        0.48797
C         -0.45848       -0.27051        0.34106
C         -1.54345        0.61469       -0.31413
C         -2.95476        0.39811        0.25203
C         -0.69909       -1.76501        0.05675
O          1.84612       -0.75137        0.69784
H          2.34946        0.34367       -1.73246
H          1.12754       -0.95278       -1.90587
H          0.65986        0.76881       -2.11827
H          0.71623        2.37067       -0.05453
H          1.06634        1.67512        1.56822
H          2.36761        1.83191        0.34167
H         -0.52773       -0.12455        1.44261
H         -1.28081        1.68394       -0.18669
H         -1.55743        0.42993       -1.40974
H         -3.32884       -0.62627        0.06180
H         -2.97184        0.56492        1.34826
H         -3.67653        1.10218       -0.20549
H          0.11094       -2.38265        0.48192
H         -1.65453       -2.10089        0.50123
H         -0.75490       -1.96485       -1.03272
H          2.77350       -0.49678        0.54468
