32
2,3-DIMETHYL-3-ETHYLHEXANE.gamout	Energy:    -394.0380588
C         -0.06395       36.95728        0.16741
C          1.44988       36.94567       -0.08573
C          2.08111       38.33811        0.06898
C          3.63611       38.44316       -0.03740
C          3.98368       39.97959       -0.15880
C          4.22583       37.84069        1.28424
C          4.14187       37.66407       -1.26978
C          5.44718       40.34511        0.15065
C          3.59803       40.59355       -1.52019
C          5.64398       37.24792        1.25290
H         -0.50628       35.94978        0.04236
H         -0.29644       37.30053        1.19629
H         -0.58218       37.64157       -0.53511
H          1.64146       36.55355       -1.10627
H          1.92979       36.22679        0.61210
H          1.78733       38.75531        1.05885
H          1.61563       39.00742       -0.68378
H          3.36103       40.47992        0.61837
H          3.54513       37.03194        1.61884
H          4.15750       38.61926        2.07455
H          3.58478       37.94696       -2.18302
H          5.21579       37.85072       -1.46167
H          4.01893       36.57257       -1.13679
H          5.59695       41.43690        0.03610
H          5.73760       40.08241        1.18376
H          6.15223       39.84792       -0.54594
H          3.68559       41.69695       -1.48078
H          2.56083       40.35679       -1.82217
H          4.27550       40.24111       -2.32383
H          5.92616       36.88538        2.26099
H          6.41437       37.97379        0.93555
H          5.70210       36.38061        0.56766
