11
2,3-DIHYDROFURAN.gamout	Energy:    -231.0672743
O          1.22316       -0.04504        0.09694
C         -1.06593        0.75579       -0.02625
C          0.42736        1.18193        0.06392
C         -0.95672       -0.75824       -0.03625
C          0.34578       -1.09674        0.03561
H         -1.55703        1.14829       -0.94240
H         -1.65919        1.12887        0.83598
H          0.76710        1.77052       -0.81085
H          0.66339        1.75190        0.98405
H         -1.79888       -1.45636       -0.09187
H          0.81902       -2.08631        0.05301
