21
2,3-DIMETHYL-2-PENTENE.gamout	Energy:    -274.9690588
C          3.58425        3.04146        2.09119
C          2.98487        1.90813        2.55679
C          2.10214        1.02226        1.68622
C          3.10527        1.40911        3.98103
C          3.42594        3.54349        0.67107
C          4.47306        3.93784        2.92643
C          0.60684        1.39542        1.74931
H          2.43817        1.03804        0.63111
H          2.22106       -0.03050        2.02240
H          3.58499        2.12529        4.66969
H          3.68645        0.46151        4.01663
H          2.10291        1.17131        4.39703
H          4.41078        3.58999        0.15626
H          3.03127        4.58271        0.67033
H          2.74927        2.93212        0.05079
H          4.65211        3.56579        3.94912
H          4.04099        4.95958        3.00706
H          5.46431        4.06152        2.43840
H          0.22826        1.38380        2.79103
H          0.43869        2.41324        1.34585
H         -0.00865        0.68529        1.16095
