24
2,4,4-TRIMETHYL-1-PENTENE.gamout	Energy:    -314.2506453
C          3.12771        1.00249        2.86667
C          1.82024        1.81299        3.17039
C          4.19017        1.68046        2.01664
C          2.13382        3.17170        3.83053
C          0.96528        0.96452        4.13769
C          1.02522        2.05264        1.86979
C          5.28909        2.42298        2.74338
C          4.18950        1.57495        0.66924
H          3.57753        0.70735        3.83911
H          2.81448        0.06112        2.36962
H          1.19624        3.68983        4.11481
H          2.68392        3.84046        3.14095
H          2.73827        3.04765        4.75156
H          1.49111        0.80040        5.09982
H          0.00318        1.46829        4.35849
H          0.73404       -0.02860        3.70272
H          1.61196        2.64112        1.13882
H          0.09159        2.61015        2.08370
H          0.74343        1.09442        1.38883
H          4.88845        3.21064        3.41244
H          5.85743        1.72533        3.39578
H          6.00061        2.89121        2.03807
H          4.96190        2.06031        0.05450
H          3.42193        0.99284        0.13818
