21
2,4,6-TRINITROTOLUENE.gamout	Energy:    -884.5287290
O          6.76500        4.11837       -0.59237
N          7.16654        3.02579       -0.99814
O          8.18372        2.83601       -1.67036
C          6.33180        1.83755       -0.67201
C          6.94301        0.61040       -0.30247
C          4.94846        2.02937       -0.76256
C          8.43179        0.45461       -0.13914
C          6.02175       -0.43460       -0.02801
C          4.11280        0.94451       -0.48568
N          6.51219       -1.78586        0.35648
C          4.63111       -0.29442       -0.10054
N          2.64112        1.11188       -0.60751
O          5.88583       -2.37836        1.23762
O          7.49253       -2.22480       -0.25050
O          2.22834        2.21373       -0.97714
O          1.93821        0.13674       -0.33172
H          4.52970        3.00430       -1.04070
H          8.90395        1.41127        0.14144
H          8.67339       -0.30552        0.62277
H          8.89157        0.12673       -1.09127
H          3.96538       -1.13315        0.13750
