24
2,4,4-TRIMETHYL-2-PENTENE.gamout	Energy:    -314.2504718
C          3.14660        1.36273        2.53550
C          2.00232        1.76359        1.92792
C          0.69553        1.06603        2.24172
C          1.86834        2.88383        0.92284
C          4.58392        1.88897        2.41640
C          5.13080        1.73780        0.97402
C          5.47412        1.04014        3.35740
C          4.67636        3.36747        2.87305
H          3.03198        0.52008        3.23966
H         -0.05159        1.78348        2.64584
H          0.24329        0.63352        1.32272
H          0.82624        0.25247        2.97902
H          1.14932        3.64948        1.28704
H          1.44748        2.49922       -0.03141
H          2.81530        3.39561        0.69023
H          4.56019        2.34031        0.24361
H          6.18910        2.06744        0.92948
H          5.08673        0.68144        0.64433
H          6.52816        1.37808        3.31761
H          5.13034        1.12009        4.40805
H          5.44846       -0.03004        3.07031
H          4.29974        3.47961        3.90836
H          5.72938        3.71672        2.85090
H          4.08673        4.04310        2.22666
