20
2,4,6-TRIMETHYLPYRIDINE.gamout	Energy:    -365.9909798
C          1.97910       -0.60745        0.00125
N          2.07051       -1.95216        0.02526
C          3.11831        0.21368       -0.12355
C          0.59079       -0.02411        0.11931
C          5.63524        0.47830       -0.39525
C          4.39565       -0.36904       -0.23018
C          3.28304       -2.53384       -0.07272
C          4.46434       -1.77506       -0.20050
C          3.30774       -4.04366       -0.03515
H          3.00765        1.30874       -0.13521
H          0.12729       -0.32652        1.07983
H          0.59859        1.08006        0.06172
H         -0.05853       -0.42008       -0.68656
H          5.51879        1.46586        0.09044
H          6.52723       -0.01896        0.03158
H          5.84334        0.66195       -1.47030
H          5.43896       -2.28141       -0.27361
H          2.85123       -4.40924        0.90630
H          2.69897       -4.45485       -0.86496
H          4.33455       -4.44636       -0.11275
