32
2,4,5-TRIMETHYLHEPTANE.gamout	Energy:    -394.0438470
C         -0.43989       18.07963       -0.28418
C          0.97650       18.54170        0.08599
C          1.26893       20.05993        0.01567
C          0.46788       20.96735        1.00934
C          2.78371       20.29658        0.18105
C         -0.91802       21.37680        0.46016
C          0.38277       20.37642        2.42808
C         -1.68593       22.45782        1.25503
C         -0.91170       23.78452        1.34294
C         -3.07638       22.68000        0.63423
H         -0.48173       16.97538       -0.36120
H         -1.19455       18.38165        0.46697
H         -0.75764       18.49501       -1.26221
H          1.69285       18.04244       -0.60079
H          1.23825       18.16674        1.09918
H          0.99625       20.39626       -1.01085
H          1.06147       21.90458        1.08135
H          3.03943       21.36420        0.03372
H          3.36639       19.70417       -0.55155
H          3.13112       20.00218        1.19268
H         -0.78360       21.74799       -0.58066
H         -1.56618       20.48089        0.38008
H          0.01222       21.12257        3.15623
H          1.37194       20.03480        2.78975
H         -0.30887       19.51106        2.46348
H         -1.84181       22.08263        2.29089
H         -1.49607       24.55322        1.88618
H          0.05599       23.67403        1.86936
H         -0.69882       24.18023        0.32758
H         -3.66407       23.42083        1.21159
H         -3.65960       21.73842        0.59763
H         -2.98460       23.06018       -0.40471
