24
2,4-DIMETHYL-2-PENTANOL.gamout	Energy:    -351.3682678
C          2.26542       -0.88319        0.72274
C          1.16195       -0.10524       -0.02146
C          1.33610       -0.26290       -1.54423
C         -0.22191       -0.60355        0.46415
C         -1.49830       -0.06993       -0.22739
C         -2.70055       -0.95570        0.14932
C         -1.79196        1.40689        0.09298
O          1.24906        1.29440        0.33933
H          3.26734       -0.49139        0.45107
H          2.13810       -0.78259        1.81764
H          2.24677       -1.96011        0.46286
H          1.17517       -1.31405       -1.85696
H          0.62294        0.37953       -2.09212
H          2.36175        0.02558       -1.85089
H         -0.21040       -1.70960        0.36656
H         -0.28385       -0.39070        1.55313
H         -1.35688       -0.15900       -1.32653
H         -3.62313       -0.61213       -0.35882
H         -2.53314       -2.01449       -0.13282
H         -2.88974       -0.92274        1.24253
H         -0.96862        2.06740       -0.23046
H         -2.72810        1.73598       -0.40080
H         -1.91963        1.54868        1.18622
H          2.14323        1.61106        0.11811
