13
2,4-DICHLOROPHENOL.gamout	Energy:   -1226.2787683
Cl         2.01733       -1.94685       -0.00011
Cl        -3.26481       -0.58731       -0.00010
O          2.46859        0.96025        0.00010
C          1.14198        0.64858        0.00008
C          0.77259       -0.71760       -0.00007
C          0.12121        1.61976        0.00010
C         -0.57747       -1.09697       -0.00010
C         -1.23274        1.25422        0.00008
C         -1.57294       -0.10748       -0.00007
H          0.39447        2.68670        0.00020
H         -0.84338       -2.16115       -0.00020
H         -2.01639        2.02296        0.00009
H          2.58155        1.92774        0.00021
