24
2,4-DIMETHYL-2-HEXENE.gamout	Energy:    -314.2558830
C         -0.26088       18.48950       -0.33130
C          1.20093       18.82288       -0.01452
C          1.48386       20.33630        0.16471
C          0.75153       20.89074        1.36457
C          3.00059       20.59577        0.29632
C         -0.17777       21.87584        1.41974
C         -0.78184       22.30002        2.73909
C         -0.68947       22.63647        0.21831
H         -0.41056       17.39710       -0.43627
H         -0.93590       18.85090        0.46952
H         -0.58444       18.96427       -1.28030
H          1.85762       18.43657       -0.82319
H          1.51420       18.29339        0.91262
H          1.12962       20.85314       -0.75254
H          1.03868       20.41913        2.32400
H          3.21461       21.67831        0.38245
H          3.55099       20.20195       -0.58193
H          3.40849       20.09930        1.20107
H         -0.37868       21.71567        3.58729
H         -0.58926       23.37683        2.93783
H         -1.88702       22.17973        2.72981
H         -0.23814       22.30811       -0.73405
H         -1.79224       22.53048        0.12974
H         -0.49384       23.72470        0.33296
