19
2,4-DINITROTOLUENE.gamout	Energy:    -680.1523678
O          6.87943        4.10680       -0.94943
N          7.28712        2.93951       -0.95229
O          8.45793        2.60661       -1.15771
C          6.30279        1.85798       -0.67833
C          6.85058        0.61425       -0.33284
C          4.90052        2.08129       -0.76758
C          5.98330       -0.44214       -0.05091
C          4.25131        3.38578       -1.15142
C          4.07675        0.96448       -0.48348
N          6.55037       -1.75878        0.32865
C          4.59112       -0.28475       -0.12269
O          5.75137       -2.67327        0.55902
O          7.77930       -1.85717        0.38990
H          7.93732        0.47995       -0.28664
H          3.16483        3.23765       -1.28849
H          4.41458        4.15762       -0.37488
H          4.68171        3.79806       -2.08331
H          2.98733        1.09293       -0.55163
H          3.93917       -1.13869        0.10040
