23
2,4-DIMETHYLQUINOLINE.gamout	Energy:    -480.2400119
C         -3.91568       -2.15151        1.75088
C         -5.36147       -1.88798        2.09177
C         -3.48494       -3.44018        1.27503
C         -2.94962       -1.16350        1.88360
C         -2.08312       -3.60931        0.97361
C         -4.36547       -4.54737        1.08851
C         -1.57818       -1.42114        1.55960
N         -1.16403       -2.60376        1.12119
C         -1.62308       -4.87410        0.50027
C         -3.88727       -5.76794        0.62529
C         -0.54917       -0.32580        1.71377
C         -2.50648       -5.93215        0.32930
H         -5.50523       -0.84890        2.43846
H         -6.01955       -2.05038        1.21334
H         -5.71595       -2.56950        2.89231
H         -3.23551       -0.16320        2.24361
H         -5.43507       -4.43283        1.31406
H         -0.55079       -4.97201        0.27933
H         -4.57956       -6.61140        0.48676
H         -0.80342        0.54941        1.08137
H         -0.50381        0.03363        2.76232
H          0.44562       -0.70395        1.42078
H         -2.13971       -6.90264       -0.03671
