21
2,4-DIMETHYL-2-PENTENE.gamout	Energy:    -274.9705496
C          3.23668        2.44279        1.45389
C          1.88011        1.85216        1.76223
C          4.46732        1.92377        1.68397
C          1.08139        1.63256        0.45832
C          1.09908        2.75704        2.74011
C          4.72259        0.58553        2.33685
C          5.71312        2.68085        1.28218
H          3.19585        3.43683        0.96877
H          2.01340        0.86396        2.24963
H          0.93421        2.59517       -0.07401
H          0.07927        1.20709        0.66857
H          1.61315        0.94577       -0.22816
H          0.94650        3.76603        2.30393
H          0.09930        2.33235        2.96248
H          1.64343        2.88201        3.69605
H          5.30063       -0.07865        1.65818
H          3.79875        0.05389        2.62525
H          5.34479        0.70718        3.25025
H          6.36440        2.87943        2.16114
H          6.32642        2.08632        0.57047
H          5.47083        3.64894        0.80540
