15
2,4-DICHLOROBENZOTRIFLUORIDE.gamout	Energy:   -1487.9105158
C          7.24652        3.04892       -0.95350
F          7.89964        2.90943       -2.13846
F          8.18929        3.22930        0.01047
F          6.53442        4.20624       -1.03028
C          6.34552        1.86418       -0.65145
C          6.85125        0.54909       -0.51317
C          4.96032        2.06662       -0.49669
Cl         8.55534        0.19311       -0.68603
C          5.99417       -0.52508       -0.22701
C          4.09034        1.00704       -0.21140
C          4.61990       -0.28612       -0.07772
Cl         3.55552       -1.62925        0.28355
H          4.55801        3.08217       -0.60037
H          6.40322       -1.53731       -0.12189
H          3.01367        1.18355       -0.09250
