20
2,4-DIMETHYLANILINE.gamout	Energy:    -365.9930311
C          7.28772        3.02288       -1.07167
C          6.37292        1.86944       -0.72202
C          6.87944        0.62770       -0.28957
C          4.96982        2.00286       -0.79779
C          6.02297       -0.43143        0.04440
C          4.62106       -0.28255       -0.03549
N          3.76520       -1.31976        0.35965
C          4.08239        0.96539       -0.46304
C          2.58613        1.14908       -0.54274
H          8.33521        2.68567       -1.18915
H          6.98255        3.51498       -2.01757
H          7.27863        3.80683       -0.28437
H          7.96838        0.48061       -0.21824
H          4.54347        2.96343       -1.13150
H          6.44555       -1.39344        0.37480
H          2.84938       -1.35458       -0.08811
H          4.19333       -2.24225        0.43649
H          2.12217        0.47169       -1.29466
H          2.09949        0.92553        0.43088
H          2.32132        2.18376       -0.82715
