32
2,4-DIMETHYL-3-ETHYLHEXANE.gamout	Energy:    -394.0368096
C          0.09596       20.23462       -1.00348
C          1.35344       20.86367       -0.39122
C          1.24767       22.33475        0.08904
C          0.42443       22.61287        1.40843
C          2.66900       22.91351        0.24413
C         -0.90262       23.40241        1.18538
C          0.26027       21.37105        2.31532
C         -0.64139       24.80103        0.59478
C         -1.97399       22.65960        0.37129
C         -0.28460       21.66617        3.72003
H          0.31399       19.21675       -1.38217
H         -0.73147       20.14668       -0.27507
H         -0.27675       20.83399       -1.85877
H          2.15396       20.83581       -1.16049
H          1.72680       20.22451        0.43578
H          0.75793       22.89568       -0.73629
H          1.05144       23.31545        2.00244
H          2.64263       23.99198        0.49490
H          3.26621       22.79701       -0.68226
H          3.21474       22.39356        1.05931
H         -1.32531       23.57022        2.19917
H         -0.38199       20.61085        1.82561
H          1.25634       20.89505        2.42341
H         -1.57557       25.39526        0.56004
H          0.09411       25.36532        1.20190
H         -0.25248       24.74452       -0.44201
H         -2.91091       23.24946        0.33684
H         -2.22265       21.67281        0.80724
H         -1.64840       22.49663       -0.67479
H         -0.24832       20.75985        4.35520
H          0.31329       22.45225        4.22513
H         -1.33793       22.00709        3.70046
