29
2,4-DIMETHYL-3-ETHYLPENTANE.gamout	Energy:    -354.7550302
C          4.55678        0.98385        2.49806
C          3.46715        2.02037        2.07082
C          2.17174        1.89315        2.95348
C          4.02964        3.45563        1.93938
C          5.65044        0.80803        1.42896
C          5.18317        1.25757        3.87787
C          2.06420        2.91352        4.10300
C          0.88723        1.90400        2.10204
C          3.17279        4.42105        1.10588
H          4.02411        0.00859        2.56863
H          3.17299        1.70945        1.04243
H          2.21845        0.88713        3.42782
H          5.03000        3.39376        1.46526
H          4.20381        3.89293        2.94375
H          6.30505       -0.05197        1.67426
H          5.21236        0.62095        0.42800
H          6.30521        1.69963        1.35016
H          5.71570        2.22959        3.89751
H          5.92297        0.47342        4.13330
H          4.42389        1.26758        4.68262
H          1.19646        2.67467        4.74946
H          1.91413        3.94485        3.72662
H          2.96481        2.91715        4.74479
H         -0.00918        1.73316        2.73170
H          0.90996        1.11095        1.32813
H          0.74923        2.87347        1.58391
H          3.68497        5.39483        0.97704
H          2.97948        4.00849        0.09484
H          2.19120        4.62643        1.57414
