26
2,4-DIMETHYLHEXANE.gamout	Energy:    -315.4747614
C          4.56126        2.74509        2.22449
C          3.33795        1.92502        1.74166
C          2.05544        2.79045        1.82058
C          3.14927        0.59575        2.49513
C          5.96763        2.28280        1.76172
C          0.83865        2.21729        1.08286
C          6.56555        1.14230        2.60615
C          6.93911        3.47889        1.74860
H          4.41831        3.78312        1.85671
H          4.54617        2.82057        3.33574
H          3.50578        1.69110        0.66442
H          1.79975        2.95662        2.89075
H          2.28380        3.79549        1.40664
H          3.01831        0.78300        3.58112
H          2.25587        0.04846        2.13777
H          4.01184       -0.08347        2.37304
H          5.86547        1.92192        0.71307
H          0.49938        1.25524        1.51444
H         -0.01927        2.91639        1.12958
H          1.06857        2.04385        0.01167
H          7.57522        0.86822        2.23974
H          6.66990        1.45827        3.66502
H          5.94804        0.22709        2.58955
H          7.05036        3.90597        2.76734
H          7.94770        3.17676        1.40351
H          6.57905        4.28889        1.08359
