24
2,4-DIMETHYL-TRANS-3-HEXENE.gamout	Energy:    -314.2542316
C          0.77660       18.93915       -0.75608
C          0.80093       19.77802        0.53711
C          0.57588       21.26585        0.32735
C          1.57588       22.14890        0.56876
C         -0.80434       21.65767       -0.14940
C          1.57315       23.65320        0.42341
C          1.84174       24.33304        1.78375
C          2.60990       24.09776       -0.63175
H          0.96649       17.87034       -0.53408
H         -0.20211       18.99882       -1.27214
H          1.55461       19.28610       -1.46476
H          1.77401       19.62901        1.04756
H          0.02060       19.38842        1.22994
H          2.53769       21.73089        0.92289
H         -1.58151       21.25057        0.53280
H         -0.94669       22.75067       -0.21262
H         -1.02157       21.23563       -1.15382
H          0.57315       23.98361        0.07456
H          1.84346       25.43732        1.68349
H          1.07333       24.05422        2.53061
H          2.83032       24.03156        2.18869
H          2.61712       25.20094       -0.74206
H          2.39039       23.65176       -1.62117
H          3.63190       23.78134       -0.33739
