21
2,4-DIMETHYL-1-PENTENE.gamout	Energy:    -274.9651441
C          3.31142        1.78079        1.00412
C          2.00563        1.90538        1.83601
C          4.42023        2.74644        1.40133
C          0.93688        0.94066        1.29692
C          2.24217        1.69290        3.33972
C          5.55738        2.18063        2.21804
C          4.38508        4.04336        1.02618
H          3.68075        0.73488        1.08313
H          3.05316        1.94026       -0.06344
H          1.63333        2.94478        1.69790
H          0.73927        1.11312        0.21999
H         -0.02149        1.05829        1.84047
H          1.26139       -0.11437        1.41518
H          1.29545        1.78590        3.90772
H          2.65331        0.68077        3.53693
H          2.94999        2.43912        3.74909
H          6.29397        2.95657        2.49938
H          6.08690        1.39027        1.64376
H          5.18886        1.69345        3.14490
H          3.56535        4.44068        0.40811
H          5.17388        4.75028        1.32283
