23
2,4-DIMETHYLPENTANE.gamout	Energy:    -276.1902665
C          3.48204        3.46483        2.29607
C          2.03275        3.94423        2.02289
C          3.88409        2.05161        1.79220
C          1.75222        4.11244        0.51766
C          0.94328        3.08852        2.69404
C          5.36619        2.02475        1.37420
C          3.60805        0.94704        2.82947
H          3.68471        3.52438        3.38781
H          4.15971        4.21042        1.82817
H          1.96999        4.95850        2.47624
H          3.28318        1.82330        0.88515
H          1.75525        3.13624       -0.00906
H          2.51133        4.75940        0.03449
H          0.75797        4.57089        0.34843
H         -0.04856        3.57309        2.59613
H          1.14212        2.94576        3.77462
H          0.86122        2.08715        2.22511
H          5.66972        1.01827        1.02317
H          6.02119        2.29295        2.22940
H          5.56970        2.74586        0.55776
H          3.86239       -0.05216        2.42247
H          2.54964        0.92189        3.14598
H          4.22561        1.10488        3.73830
