22
2,4-DIMETHYL-3-PENTANONE.gamout	Energy:    -350.1563522
C          1.28236        0.10751       -0.05018
C          0.38332        0.14980        1.20607
C         -0.07488        1.46146        1.87978
O          0.02432       -0.91681        1.69784
C          0.99063        1.15104       -1.14306
C          2.77262        0.11508        0.36711
C          1.02675        2.51584        2.09242
C         -1.31123        2.04871        1.15898
H          1.06985       -0.89770       -0.46860
H         -0.41597        1.11571        2.87705
H          1.18604        2.18600       -0.80456
H         -0.05627        1.09356       -1.49669
H          1.64693        0.96336       -2.01557
H          3.09908        1.11239        0.71956
H          3.40426       -0.15409       -0.50274
H          2.96866       -0.62198        1.16889
H          1.40439        2.93475        1.14035
H          1.88635        2.10190        2.65318
H          0.62211        3.36201        2.68205
H         -1.05408        2.46909        0.16868
H         -1.74090        2.86905        1.76782
H         -2.09641        1.28141        1.02012
