19
2,4-DIMETHYL-1,3-PENTADIENE.gamout	Energy:    -273.7444349
C          3.09301        1.30638        0.68429
C          4.43148        1.91291        0.84846
C          1.87010        1.86239        0.90748
C          5.47582        1.01765        1.48365
C          4.73791        3.16435        0.42449
C          0.60906        1.06647        0.67131
C          1.65178        3.26450        1.42279
H          3.10286        0.24116        0.38660
H          5.17754        0.73055        2.51393
H          5.58258        0.07102        0.91251
H          6.46554        1.50906        1.52791
H          5.74711        3.58200        0.55825
H          4.00164        3.79273       -0.09483
H         -0.05028        1.58057       -0.06152
H          0.81818        0.04864        0.29175
H          0.01706        0.97646        1.60794
H          2.57689        3.71574        1.82373
H          1.27113        3.93140        0.61841
H          0.87602        3.26688        2.21754
