24
2,5-DIMETHYL-CIS-3-HEXENE.gamout	Energy:    -314.2459231
C          4.34964        3.17319        2.37188
C          5.20085        1.90577        2.39957
C          3.02827        3.30760        2.12310
C          5.27988        1.20482        1.02506
C          4.78991        0.92299        3.51893
C          1.99459        2.25170        1.79615
C          1.39084        2.50593        0.39784
C          0.89155        2.22462        2.87620
H          4.89510        4.10828        2.58410
H          6.23247        2.24042        2.64117
H          2.61958        4.33560        2.15632
H          5.99923        0.36160        1.05595
H          4.29702        0.79524        0.72088
H          5.60939        1.90851        0.23628
H          5.50361        0.07626        3.56988
H          4.77763        1.42427        4.50586
H          3.78113        0.50196        3.34162
H          2.48250        1.25711        1.78023
H          0.90128        3.50079        0.35757
H          2.17056        2.48179       -0.38750
H          0.62520        1.74328        0.15107
H          0.12219        1.46280        2.63807
H          1.30974        1.99497        3.87495
H          0.38347        3.20885        2.93985
