24
2,5-DIMETHYL-1-HEXENE.gamout	Energy:    -314.2514206
C          3.15290        1.77049        3.21477
C          1.87073        1.18807        3.84732
C          3.60500        1.07851        1.90906
C          1.49217        1.83244        5.16857
C          2.57734        1.23777        0.77471
C          4.98537        1.60029        1.47628
C          2.39885        1.54988        6.34462
C          0.39649        2.61274        5.28641
H          3.98453        1.70633        3.94724
H          2.99754        2.85463        3.01979
H          1.02378        1.29566        3.14180
H          2.02078        0.09532        4.00430
H          3.70684       -0.00979        2.12644
H          2.41310        2.31102        0.54311
H          2.92699        0.74441       -0.15352
H          1.59663        0.79502        1.03481
H          4.94371        2.68715        1.25444
H          5.74342        1.44913        2.27065
H          5.34514        1.08695        0.56263
H          2.47415        0.45646        6.52754
H          2.03551        2.03248        7.27069
H          3.43355        1.90653        6.15738
H         -0.26583        2.80596        4.42886
H          0.12645        3.08394        6.24320
