19
2,5-XYLENOL.gamout	Energy:    -385.8451622
C         -1.64115        0.27752       -0.15704
C         -0.28948        0.65889       -0.06988
C         -2.02420       -1.07276       -0.03288
C         -1.01115       -2.03094        0.18148
C          0.73300       -0.29501        0.14519
C          0.33454       -1.63994        0.26716
C          2.17383        0.14217        0.23406
H          2.32653        0.86493        1.06138
H          2.83962       -0.72470        0.40188
H          2.49758        0.65654       -0.69367
C         -3.47702       -1.48494       -0.12641
H         -3.63803       -2.19993       -0.95906
H         -4.13940       -0.61502       -0.29465
H         -3.81119       -1.98978        0.80316
O          0.10493        1.97274       -0.19011
H         -0.67701        2.53417       -0.33473
H         -2.41019        1.04980       -0.32554
H         -1.27793       -3.09348        0.28262
H          1.10979       -2.40355        0.43491
