22
2,5-DIMETHYL-1,5-HEXADIENE.gamout	Energy:    -313.0232678
C          3.32415        2.19670        1.62970
C          4.59597        1.68888        2.33546
C          2.04018        1.43556        1.90332
C          5.83835        2.49129        1.99446
C          0.82965        1.96058        1.16510
C          1.95835        0.37349        2.73236
C          5.91046        3.89975        2.53943
C          6.83308        1.96499        1.24839
H          3.14718        3.26422        1.89114
H          3.50298        2.20005        0.53049
H          4.43045        1.71881        3.43528
H          4.76139        0.62699        2.06432
H          0.63289        3.02263        1.42638
H          0.99148        1.93254        0.06616
H         -0.07922        1.37456        1.39560
H          1.00120       -0.14285        2.89615
H          2.82876       -0.02082        3.27499
H          5.82185        3.89680        3.64686
H          6.86168        4.39458        2.26900
H          5.07842        4.52967        2.15969
H          7.73406        2.54498        0.99815
H          6.78018        0.93498        0.86402
