26
2,5-DIMETHYLHEXANE.gamout	Energy:    -315.4799003
C          3.37234        2.29725        1.40595
C          4.67619        1.48857        1.49048
C          2.09456        1.44979        1.21914
C          5.96802        2.33580        1.47119
C          1.83331        0.52137        2.41875
C          0.87752        2.35083        0.95138
C          6.09086        3.24608        2.70561
C          7.20631        1.43487        1.32807
H          3.25036        2.92405        2.31635
H          3.45413        3.00906        0.55534
H          4.68127        0.85851        2.40658
H          4.71035        0.78169        0.63215
H          2.25057        0.80867        0.32153
H          5.91784        2.98819        0.56928
H          1.68713        1.11429        3.34598
H          0.92071       -0.08730        2.26250
H          2.67223       -0.17906        2.59372
H          1.03792        2.99874        0.06651
H         -0.03808        1.75262        0.77376
H          0.68120        3.01376        1.81988
H          6.10336        2.64297        3.63769
H          7.02985        3.83357        2.67538
H          5.25304        3.96604        2.78148
H          8.13943        2.03156        1.29739
H          7.28672        0.73270        2.18423
H          7.16054        0.82944        0.40076
