16
2,5-DIMETHYLPYRROLE.gamout	Energy:    -288.6162019
C         -0.31395       -1.55630        0.12530
N         -1.17574       -0.69750       -0.54284
C         -1.11210       -2.40082        0.89331
C          1.17292       -1.48057       -0.03976
C         -2.48101       -2.03270        0.67451
C         -2.49911       -0.96868       -0.22409
C         -3.63514       -0.18610       -0.80777
H         -0.87646        0.03579       -1.18250
H         -0.74136       -3.20047        1.54428
H          1.65777       -2.25495        0.58209
H          1.49012       -1.65128       -1.09118
H          1.58349       -0.49646        0.27316
H         -3.36724       -2.49401        1.12436
H         -4.59436       -0.57128       -0.41668
H         -3.58010        0.89382       -0.55113
H         -3.67366       -0.26011       -1.91611
