24
2,5-DIMETHYL-2-HEXENE.gamout	Energy:    -314.2554709
C          1.95129        2.27812        2.79616
C          3.11744        2.37409        3.74719
C          2.01774        1.08911        1.79743
C          3.15009        2.02113        5.05652
C          3.27542        1.14404        0.91424
C          0.74198        1.03808        0.94051
C          4.41212        2.17787        5.87426
C          1.97207        1.45538        5.81592
H          1.89202        3.21891        2.20225
H          0.99777        2.21154        3.35787
H          4.05403        2.77131        3.31877
H          2.06519        0.15581        2.40206
H          4.20329        1.10876        1.51670
H          3.29293        2.07781        0.31353
H          3.30254        0.29087        0.20741
H          0.75488        0.17000        0.25158
H          0.64442        1.95540        0.32287
H         -0.16752        0.95740        1.56915
H          4.24106        2.84788        6.74478
H          5.24480        2.59466        5.27715
H          4.74007        1.20152        6.29285
H          1.73131        2.09149        6.69484
H          1.06009        1.36097        5.20070
H          2.21513        0.44880        6.21929
