32
2,5-DIMETHYL-3-ETHYLHEXANE.gamout	Energy:    -394.0444090
C          0.72265       19.84405        1.10965
C          1.63990       20.71433        0.23450
C          0.83996       21.87251       -0.40770
C          2.84109       21.22380        1.04957
C          1.54478       22.64654       -1.55572
C          1.10596       22.18430       -2.98112
C          1.39380       24.17872       -1.40068
C          1.40149       20.69770       -3.24629
C         -0.36129       22.51507       -3.31118
C          2.22064       24.78081       -0.25778
H         -0.10887       19.40756        0.52056
H          1.27935       19.00795        1.57736
H          0.27243       20.44377        1.92852
H          2.03528       20.07206       -0.58211
H         -0.12712       21.47229       -0.77660
H          0.56305       22.57637        0.40746
H          3.53141       21.83770        0.43934
H          3.42590       20.37952        1.46522
H          2.50067       21.84801        1.90215
H          2.63531       22.43202       -1.49268
H          1.73747       22.76876       -3.68814
H          1.69090       24.66584       -2.35430
H          0.32211       24.42997       -1.25117
H          1.19161       20.44248       -4.30342
H          2.46259       20.45278       -3.04210
H          0.77093       20.03540       -2.61887
H         -0.60432       22.21882       -4.35073
H         -0.57514       23.59650       -3.21606
H         -1.06167       21.97113       -2.64553
H          2.07084       25.87597       -0.18834
H          1.94552       24.34722        0.72413
H          3.30354       24.59794       -0.41039
