11
2,5-DIHYDROFURAN.gamout	Energy:    -231.0610016
C          2.41094        0.87218        0.89922
C          1.06635        0.88879        0.89517
C          2.93559        2.28472        0.90392
C          0.57690        2.31390        0.89687
O          1.76633        3.12044        0.90181
H          3.05689       -0.01618        0.89930
H          0.39867        0.01667        0.89133
H          3.55634        2.50720        1.80448
H          3.56216        2.51112        0.00842
H         -0.03883        2.55530       -0.00230
H         -0.04364        2.55152        1.79372
