29
2,5-DIMETHYLHEPTANE.gamout	Energy:    -354.7637548
C          4.03393        2.16900        2.67206
C          3.32670        2.10735        4.04465
C          1.79828        2.25160        3.86202
C          3.89209        3.15293        5.02202
C          5.49706        1.69964        2.67477
C          0.96102        2.03549        5.12900
C          6.19563        1.74056        1.29657
C          7.50105        0.92798        1.32695
C          6.45917        3.18080        0.82165
H          3.46701        1.53982        1.95145
H          3.96514        3.20906        2.28508
H          3.51695        1.09684        4.47544
H          1.58360        3.25850        3.43950
H          1.47167        1.52522        3.08759
H          3.72596        4.17877        4.63142
H          3.41312        3.09008        6.01748
H          4.98014        3.02377        5.17765
H          6.09550        2.30713        3.38849
H          5.53173        0.65747        3.06076
H          1.15046        1.03369        5.56605
H          1.18182        2.78838        5.91086
H         -0.12190        2.10383        4.90703
H          5.51338        1.25780        0.56009
H          7.31374       -0.12804        1.60623
H          8.21002        1.34998        2.06984
H          8.00903        0.93413        0.34203
H          7.15645        3.69741        1.51394
H          5.52938        3.77879        0.76941
H          6.91978        3.19058       -0.18610
