17
2,6-DIMETHYLPYRIDINE.gamout	Energy:    -326.7000214
C          2.43221        1.11524        0.00456
C          1.16736        0.28825       -0.01019
N          0.00001        0.96386        0.00003
C         -1.16734        0.28828        0.01028
C         -1.20811       -1.12323        0.01116
C         -0.00002       -1.83438       -0.00005
C          1.20810       -1.12325       -0.01123
C         -2.43220        1.11525       -0.00454
H          2.74084        1.32845        1.04987
H          3.27162        0.59128       -0.49121
H          2.25593        2.08748       -0.49068
H         -2.17381       -1.64959        0.01793
H         -0.00003       -2.93497        0.00004
H          2.17378       -1.64964       -0.01754
H         -2.74213        1.32651       -1.04986
H         -3.27104        0.59223        0.49319
H         -2.25528        2.08836        0.48874
