23
2,6-DIMETHYLQUINOLINE.gamout	Energy:    -480.2395193
C         -3.92936       -5.76154        0.67925
C         -2.52214       -5.94208        0.48550
C         -4.38894       -4.50084        1.05300
C         -4.87141       -6.92605        0.47722
C         -1.62281       -4.90129        0.66015
C         -2.07928       -3.60448        1.04277
C         -3.49364       -3.40677        1.24214
C         -3.91347       -2.09862        1.62481
N         -1.16329       -2.60058        1.20624
C         -1.58250       -1.39058        1.56334
C         -2.96992       -1.09948        1.78451
C         -0.54455       -0.30611        1.73452
H         -2.15171       -6.93618        0.19014
H         -5.46675       -4.33372        1.20924
H         -5.92276       -6.63668        0.66027
H         -4.80120       -7.32221       -0.55692
H         -4.62323       -7.76379        1.16122
H         -0.54264       -5.04000        0.51131
H         -4.98361       -1.89779        1.78911
H         -3.27128       -0.08328        2.07891
H         -0.56002        0.10084        2.76653
H          0.45987       -0.71252        1.52425
H         -0.74087        0.54321        1.04828
