20
2,6-DIMETHYLANILINE.gamout	Energy:    -365.9939287
C          7.27514        3.01523       -0.97186
C          6.36467        1.84694       -0.67687
C          6.88004        0.58203       -0.34061
C          4.95178        2.01843       -0.72995
C          6.03455       -0.50173       -0.05480
C          4.64380       -0.31518       -0.10402
C          4.08103        0.93067       -0.43518
C          2.58487        1.13216       -0.47614
N          4.41548        3.27985       -1.01271
H          8.33731        2.73356       -0.85416
H          7.14829        3.39198       -2.01184
H          7.07457        3.87156       -0.29214
H          7.97251        0.45048       -0.30043
H          6.45536       -1.48304        0.20694
H          3.97012       -1.15642        0.12191
H          2.05078        0.20867       -0.18721
H          2.26065        1.94114        0.21375
H          2.22887        1.41311       -1.49289
H          5.01823        3.93770       -1.50497
H          3.45135        3.30726       -1.34134
