19
2,6-XYLENOL.gamout	Energy:    -385.8450361
C          6.32461        1.89102       -0.66384
C          6.82891        0.59339       -0.40669
C          4.93500        2.08608       -0.55700
C          7.27351        3.00337       -1.03744
C          4.07241        1.03358       -0.20735
C          4.60131       -0.24169        0.04192
C          5.98564       -0.48741       -0.05265
C          6.57336       -1.85571        0.21122
O          8.19204        0.43370       -0.52062
H          4.52500        3.08880       -0.75311
H          8.02979        3.17033       -0.24372
H          7.83761        2.75878       -1.96050
H          6.72577        3.94923       -1.20320
H          2.98967        1.20800       -0.12928
H          3.93136       -1.07106        0.31631
H          7.30056       -1.84551        1.05371
H          5.78249       -2.57948        0.47822
H          7.10004       -2.26470       -0.67977
H          8.42972       -0.48988       -0.32372
