22
2,6-OCTADIENE.gamout	Energy:    -313.0241708
C          4.45517        1.50353        1.99428
C          3.10340        2.01020        1.56640
C          5.47103        1.41138        0.82422
C          1.94117        1.33734        1.68855
C          0.59129        1.84231        1.26077
C          6.82321        0.90759        1.25413
C          7.98368        1.58488        1.14024
C          9.33281        1.08261        1.57378
H          4.34860        0.50589        2.47066
H          4.88393        2.17837        2.76820
H          3.08339        3.01601        1.10522
H          5.57563        2.40848        0.34630
H          5.04410        0.73446        0.05115
H          1.96566        0.33309        2.15112
H          0.65756        2.85111        0.80885
H          0.12154        1.16148        0.51910
H         -0.10964        1.89508        2.12121
H          6.84491       -0.10033        1.71067
H          7.95816        2.59146        0.68281
H         10.04420        1.05119        0.72110
H          9.78819        1.75327        2.33362
H          9.26893        0.06544        2.00688
