19
2,6-DINITROTOLUENE.gamout	Energy:    -680.1454087
O          6.71309        4.13205       -0.45082
N          7.12359        3.05564       -0.89665
O          8.14905        2.90831       -1.56905
C          6.29602        1.85181       -0.62858
C          6.91142        0.60221       -0.35931
C          4.90646        2.04852       -0.66955
C          8.40387        0.42862       -0.22764
C          5.98833       -0.45292       -0.14110
C          4.04786        0.96458       -0.45233
N          6.47188       -1.83015        0.13144
C          4.59385       -0.29400       -0.17435
O          5.81909       -2.50913        0.93088
O          7.47442       -2.21728       -0.47722
H          4.52287        3.05731       -0.87003
H          8.84769        0.12979       -1.19636
H          8.88862        1.36951        0.08187
H          8.64916       -0.36190        0.50210
H          2.95888        1.10017       -0.49730
H          3.95977       -1.16788        0.02347
