30
2,6-DIMETHYL-4-HEPTANOL.gamout	Energy:    -429.9384282
C          3.29843        2.88868        2.28935
C          4.66364        2.26441        1.95481
C          2.06290        2.07704        1.84240
C          5.82155        3.13035        2.46219
O          4.85072        2.12288        0.53446
C          0.78523        2.92376        1.98143
C          1.92859        0.74617        2.60333
C          7.23574        2.55888        2.22367
C          8.30308        3.60546        2.58488
C          7.47023        1.24692        2.99138
H          3.26252        3.89803        1.82688
H          3.24198        3.04202        3.38975
H          4.72647        1.25906        2.43342
H          2.17629        1.84706        0.75651
H          5.74032        4.12139        1.96659
H          5.67618        3.30884        3.55017
H          4.13086        1.57677        0.17343
H          0.85454        3.85417        1.38438
H         -0.10950        2.36578        1.64250
H          0.62007        3.21402        3.03985
H          2.80871        0.08819        2.46468
H          1.03562        0.18352        2.26773
H          1.81813        0.93269        3.69158
H          7.32118        2.34296        1.13769
H          9.32382        3.22366        2.38474
H          8.25064        3.87211        3.66171
H          8.17015        4.53801        2.00115
H          8.48774        0.85084        2.80295
H          6.75270        0.45695        2.69651
H          7.37138        1.40649        4.08591
