24
2,6-DIMETHYLNAPHTHALENE.gamout	Energy:    -464.2049992
C          1.86034        1.83036        0.90821
C          0.56542        1.05009        0.92109
C          3.09952        1.19799        0.95794
C          1.82985        3.26002        0.84224
C          4.32316        1.93282        0.94478
C          2.99718        4.00743        0.82758
C          4.27697        3.37473        0.87794
C          5.60293        1.30014        0.99575
C          5.50057        4.10960        0.86473
C          6.77024        2.04760        0.98099
C          6.73974        3.47722        0.91418
C          8.03479        4.25719        0.89685
H         -0.07736        1.35570        1.77241
H         -0.02057        1.22913       -0.00450
H          0.74655       -0.03766        1.00310
H          3.14818        0.09862        1.00959
H          0.85453        3.76945        0.80305
H          2.95107        5.10591        0.77629
H          5.64910        0.20167        1.04725
H          5.45189        5.20898        0.81320
H          7.74563        1.53836        1.02101
H          8.65135        4.03234        1.79174
H          8.64792        3.99442        0.00974
H          7.85269        5.34762        0.87356
