29
2,6-DIMETHYLHEPTANE.gamout	Energy:    -354.7652239
C          3.61628        1.21651        0.18001
C          2.64474        0.05222       -0.08052
C          1.18235        0.54940       -0.07296
C          0.11524       -0.55452       -0.04754
C         -1.31758       -0.00504        0.02711
C         -2.43363       -1.07315        0.04471
C         -3.81781       -0.41531       -0.08660
H          3.39161        1.72074        1.14100
H          4.66665        0.86574        0.21718
H          3.54589        1.97964       -0.62318
C          3.00455       -0.68114       -1.38466
H          2.75363       -0.67072        0.76001
H          1.03369        1.20316        0.81418
H          1.02086        1.20705       -0.95715
H          0.20556       -1.19850       -0.94823
H          0.31297       -1.21610        0.82309
H         -1.42142        0.63469        0.93266
H         -1.48412        0.67162       -0.83927
H         -4.62513       -1.17386       -0.11143
H         -4.01680        0.25826        0.77298
H         -3.89165        0.19057       -1.01156
C         -2.36584       -1.96194        1.29933
H         -2.28171       -1.72726       -0.84432
H         -2.46665       -1.34743        2.21846
H         -1.40978       -2.51548        1.36707
H         -3.18277       -2.71062        1.30584
H          4.05826       -1.02343       -1.37205
H          2.87936       -0.00848       -2.25868
H          2.36948       -1.57281       -1.55173
