32
2,7-DIMETHYLOCTANE.gamout	Energy:    -394.0501974
C         -0.17535       -0.03114        0.02290
C          0.99919        0.87196        0.43608
H         -0.04456       -1.06539        0.39948
H         -1.13839        0.35387        0.41282
H         -0.25988       -0.08585       -1.08286
C          2.33850        0.28457       -0.05909
H          1.03981        0.88755        1.54979
C          0.77741        2.31628       -0.04963
H          2.33038        0.26752       -1.17283
H          2.39472       -0.77932        0.26017
C          3.59692        1.01353        0.43333
H          3.56266        1.09173        1.54312
H          3.60559        2.05764        0.05370
C          4.90393        0.32445        0.01490
H          4.93820        0.24625       -1.09488
H          4.89527       -0.71967        0.39453
C          6.16236        1.05338        0.50733
H          6.17057        1.07035        1.62107
H          6.10616        2.11730        0.18815
C          7.50165        0.46604        0.01207
H          7.46099        0.45048       -1.10165
C          7.72345       -0.97829        0.49771
C          8.67619        1.36912        0.42522
H          8.76080        1.42381        1.53098
H          8.54541        2.40339        0.04870
H          9.63924        0.98414        0.03525
H         -0.21156        2.69758        0.27280
H          0.80958        2.36258       -1.15859
H          1.54483        3.01221        0.34012
H          6.95602       -1.67423        0.10798
H          7.69132       -1.02464        1.60666
H          8.71240       -1.35962        0.17524
