34
2-(2-BUTOXYETHOXY)ETHYL_ACETATE.gamout	Energy:    -693.5261894
O         -2.78030        0.27126        0.00301
O          0.79770       -0.21561       -0.00091
O          4.33555        0.52282       -0.00209
O          5.64409       -1.33239       -0.03713
C         -5.18571        0.32465        0.00315
C         -3.93931       -0.55446       -0.00504
C         -6.48914       -0.48844       -0.00650
C         -1.57141       -0.46777       -0.00140
C         -0.41392        0.52599        0.00474
C         -7.74722        0.38949        0.00201
C          1.95348        0.60304        0.00424
C          3.16463       -0.32230       -0.00812
C          5.53776       -0.11889       -0.01660
C          6.67913        0.87251       -0.00406
H         -5.14945        0.99648       -0.88025
H         -5.15103        0.97879        0.89975
H         -3.93094       -1.21156       -0.90957
H         -3.93087       -1.22912        0.88643
H         -6.50507       -1.14807       -0.90108
H         -6.50671       -1.16682        0.87396
H         -1.50253       -1.11882       -0.90503
H         -1.50277       -1.12970        0.89432
H         -0.47849        1.18664       -0.89133
H         -0.47778        1.17529        0.90912
H         -7.77796        1.05422       -0.88507
H         -8.66906       -0.22410       -0.00563
H         -7.77943        1.03445        0.90346
H          1.97782        1.25442        0.91011
H          1.97384        1.27085       -0.88972
H          3.17204       -0.98346        0.88055
H          3.16657       -0.96427       -0.91076
H          6.60923        1.54250       -0.88296
H          7.63827        0.33087       -0.01653
H          6.61542        1.51300        0.89701
