12
2-(DIFLUOROMETHOXY)-1,1,1-TRIFLUOROETHANE.gamout	Energy:    -690.0955330
C         -1.98663        3.13877        0.21470
C         -0.47160        2.98146        0.10811
C          1.17034        1.29053        0.35808
O         -0.14953        1.61827        0.40155
H         -0.00118        3.67268        0.83499
H         -0.16432        3.25364       -0.92096
F         -2.64729        2.34674       -0.66222
F         -2.30850        4.43110       -0.06348
F         -2.44366        2.85166        1.45613
F          1.91096        2.04168        1.24755
F          1.71847        1.54039       -0.88330
H          1.28202        0.21772        0.60046
