14
2-ACETYLTHIOPHEN.gamout	Energy:    -705.3758127
C         -1.48634        1.93091       -0.54573
C         -2.75735        1.84595        0.28725
O         -2.91193        2.52843        1.30268
C         -3.80710        0.91140       -0.16595
S         -5.28792        0.78894        0.76823
C         -5.92496       -0.39669       -0.32064
C         -5.04910       -0.69155       -1.35627
C         -3.84083        0.05522       -1.26680
H         -0.80376        2.66329       -0.08290
H         -0.98577        0.94307       -0.60203
H         -1.71741        2.24547       -1.58371
H         -6.92019       -0.82150       -0.14359
H         -5.26841       -1.41821       -2.15006
H         -3.01680       -0.03009       -1.98750
