11
2-BROMOPROPANE.gamout	Energy:   -2692.5800611
C          0.05308       -0.02521        0.06297
C          1.57146       -0.02244       -0.05003
C         -0.59179        1.34876       -0.04951
Br        -0.47093       -0.85053        1.82364
H         -0.39297       -0.73069       -0.66263
H          1.99077       -1.03891        0.06156
H          2.02793        0.63343        0.71646
H          1.86111        0.36415       -1.05073
H         -1.69029        1.29603        0.06256
H         -0.36584        1.77818       -1.04905
H         -0.19232        2.03930        0.71845
