8
2-BROMO-2-CHLORO-1,1,1-TRIFLUOROETHANE.gamout	Energy:   -3410.3074900
C         41.00752       20.00954        0.03092
C         39.46022       20.00417        0.01909
F         38.93014       20.62809        1.08603
F         39.01020       20.61327       -1.10371
F         39.00840       18.72678        0.00303
Br        41.68470       21.84795       -0.03642
Cl        41.62990       19.10774        1.43930
H         41.36399       19.50604       -0.88455
