30
2-BUTYLNAPHTHALENE.gamout	Energy:    -542.7707906
C          8.51709        3.61262        0.84096
C          8.26250        2.36122       -0.02838
C          6.97342        1.64578        0.31879
C          9.83193        4.33009        0.50154
C          5.83189        1.76507       -0.46934
C          6.90475        0.84113        1.50057
C         10.08551        5.57239        1.36594
C          4.60645        1.11470       -0.12879
C          5.73474        0.19400        1.86464
C          4.55337        0.30810        1.07059
C          3.42940        1.22830       -0.93036
C          3.33077       -0.34499        1.41160
C          2.25508        0.58030       -0.57038
C          2.20450       -0.21314        0.61070
H          7.66341        4.31363        0.71950
H          8.52192        3.31955        1.91318
H          9.11872        1.66226        0.09152
H          8.24701        2.65783       -1.09765
H         10.67697        3.61746        0.61855
H          9.82232        4.61953       -0.57177
H          5.86605        2.37495       -1.38593
H          7.80459        0.73283        2.12529
H         11.03885        6.06777        1.09649
H          9.27295        6.31696        1.24324
H         10.13599        5.30816        2.44186
H          5.70405       -0.42444        2.77470
H          3.46743        1.84142       -1.84371
H          3.29493       -0.95849        2.32488
H          1.35757        0.67841       -1.19875
H          1.26929       -0.72223        0.88652
