15
2-BUTANOL.gamout	Energy:    -233.5105627
C         -4.47249       -1.40044        0.03629
C         -3.23351       -0.51089       -0.16477
H         -1.31020       -0.43142       -1.20522
H         -1.76143       -2.06499       -0.62389
H         -2.56951       -1.36055       -2.07063
H         -3.72050       -2.61921        1.69232
H         -5.16270       -3.29415        0.87214
H         -3.56462       -3.40872        0.09060
C         -2.15918       -1.13171       -1.06635
O         -2.71275       -0.21920        1.14536
H         -1.92376        0.34210        1.05228
C         -4.20977       -2.75398        0.70922
H         -5.20036       -0.82081        0.64083
H         -4.94613       -1.55017       -0.95701
H         -3.58444        0.43782       -0.63707
