22
2-BUTOXYETHANOL.gamout	Energy:    -387.2351918
C         -4.62805        0.35672        0.39209
C         -3.35877       -0.34335       -0.10949
H         -4.67407        1.40515        0.03363
H         -4.66058        0.38167        1.50017
H         -5.54174       -0.16003        0.03933
C         -2.06630        0.34196        0.35903
H         -3.37244       -0.38357       -1.22030
H         -3.35911       -1.40076        0.23403
C         -0.80716       -0.35575       -0.14454
H         -2.03361        0.37480        1.46847
H         -2.04764        1.39658        0.01120
O          0.33848        0.33861        0.33421
H         -0.79699       -0.38358       -1.26242
H         -0.78133       -1.41755        0.20522
C          1.55995       -0.23594       -0.09695
C          2.70435        0.59093        0.48141
H          1.62775       -0.24312       -1.21117
H          1.65108       -1.29415        0.24780
O          3.92485       -0.00111        0.03288
H          2.60450        1.64369        0.13234
H          2.62991        0.59046        1.59229
H          4.67216        0.50773        0.38726
