12
2-BUTYNE-1,4-DIOL.gamout	Energy:    -306.1883475
C          4.04559        1.08822        1.05171
C          2.82287        1.14597        1.05947
C          1.36256        1.18300        1.07381
C          5.50562        1.04134        1.06357
O          0.89220        2.46060        0.62208
O          5.98855        0.27760       -0.05034
H          0.98173        0.36188        0.42105
H          1.00448        0.97000        2.10921
H          5.89376        2.08709        1.03124
H          5.84555        0.59679        2.02935
H         -0.08124        2.44296        0.62618
H          6.96175        0.28334       -0.02199
