15
2-CHLOROBENZOTRICHLORIDE.gamout	Energy:   -2109.3751362
C          7.25750        3.04346       -1.02097
Cl         8.02983        3.68378        0.49294
Cl         6.36675        4.43682       -1.76918
Cl         8.55310        2.57151       -2.20266
C          6.35386        1.85590       -0.70633
C          6.84256        0.65663       -0.11607
C          4.97322        1.91308       -0.99859
Cl         8.52721        0.42270        0.30777
C          5.97883       -0.41655        0.15907
C          4.10989        0.84400       -0.72517
C          4.61337       -0.32790       -0.14333
H          4.57495        2.82687       -1.45326
H          6.39667       -1.32374        0.61483
H          3.04267        0.93522       -0.97046
H          3.95082       -1.17680        0.07819
