11
2-CHLOROPROPANE.gamout	Energy:    -578.5647106
C          0.66504        1.26771        1.80556
C          2.06258        1.83329        1.58581
C          3.05281        0.84364        0.98400
Cl         1.94996        3.31930        0.49110
H         -0.01499        2.02964        2.22881
H          0.23289        0.89865        0.85540
H          0.72187        0.41655        2.51571
H          2.46240        2.24284        2.53365
H          2.69072        0.46428        0.00893
H          4.04445        1.30843        0.83357
H          3.17227       -0.01947        1.67169
