16
2-CHLOROMETHYLPHENOL.gamout	Energy:    -806.0604605
Cl         2.99534       -0.20024       -0.82198
O          0.47725        2.21909        0.19389
C          0.46427       -0.15788        0.33428
C         -0.23427        1.05344        0.09420
C         -0.25070       -1.36908        0.23750
C          1.91982       -0.14288        0.68141
C         -1.60539        1.03495       -0.22810
C         -1.61500       -1.39666       -0.08706
C         -2.29067       -0.18590       -0.32111
H          0.28850       -2.31191        0.41659
H          2.20828       -1.03123        1.26934
H          2.21659        0.77773        1.21067
H         -2.13497        1.98416       -0.40977
H         -2.14996       -2.35439       -0.15426
H         -3.36095       -0.18834       -0.57494
H         -0.09839        2.97625       -0.01389
