15
2-CHLOROETHYL_ETHER.gamout	Energy:   -1152.5079094
Cl         1.06404       -0.16792       -0.03196
C          2.87120       -0.02771       -0.05358
C          3.27605        1.42821       -0.25073
O          4.69773        1.46992       -0.25669
C          5.21252        2.78534       -0.42753
C          6.73221        2.67916       -0.40534
Cl         7.46776        4.32333       -0.61077
H          3.24029       -0.66288       -0.87854
H          3.24377       -0.41901        0.90983
H          2.86600        2.05727        0.57349
H          2.86408        1.81768       -1.21041
H          4.86121        3.45512        0.39144
H          4.86798        3.22104       -1.39396
H          7.10379        2.04684       -1.23136
H          7.09173        2.27726        0.55880
