17
2-CHLORO-2-METHYLBUTANE.gamout	Energy:    -657.1375340
C          0.50674        1.05670        0.02248
C          2.04479        0.98611       -0.05199
C          2.52950       -0.46567       -0.00594
C          2.62852        1.73428       -1.25333
Cl         2.72656        1.81560        1.48776
C         -0.11930        2.45410       -0.00302
H          0.18680        0.51433        0.93530
H          0.12939        0.46142       -0.83927
H          3.63391       -0.51282        0.00967
H          2.14429       -0.99065        0.88815
H          2.17127       -1.00299       -0.90899
H          3.73013        1.64224       -1.27445
H          2.37380        2.80870       -1.23384
H          2.22322        1.29510       -2.18894
H         -1.21904        2.38606        0.10270
H          0.08812        2.98214       -0.95365
H          0.26732        3.07356        0.82862
