9
2-CHLOROETHANOL.gamout	Energy:    -614.4418957
Cl        -5.25518        1.93339        0.18344
C         -3.77756        2.94856       -0.09240
C         -2.52672        2.07819       -0.06240
H         -3.75105        3.71471        0.70360
H         -3.89532        3.44402       -1.07313
O         -1.42393        2.95863       -0.28674
H         -2.59550        1.29626       -0.85172
H         -2.45029        1.56720        0.92350
H         -0.59803        2.44618       -0.27637
