14
2-CHLOROBUTANE.gamout	Energy:    -617.8500743
C          1.70840        1.84122        1.82393
C          2.01933        1.66712        3.31173
C          0.90957        0.98264        4.09990
Cl         2.36607        3.31497        4.07723
C          2.87552        2.35318        0.97400
H          1.38237        0.84519        1.45085
H          0.83039        2.51280        1.72236
H          2.97769        1.12490        3.43893
H          0.75922       -0.04447        3.70728
H         -0.04551        1.53488        4.00327
H          1.16459        0.90985        5.17279
H          3.73134        1.64853        1.00129
H          3.23039        3.33568        1.33975
H          2.57021        2.47166       -0.08336
