8
2-CHLORO-1,1,1,2-TETRAFLUOROETHANE.gamout	Energy:    -935.9585754
C          0.16122        0.87567       -0.12737
C          0.67914       -0.54197        0.23027
F         -1.18186        0.85914       -0.27272
F          2.03194       -0.47891        0.40967
Cl         0.27891       -1.71474       -1.06166
F          0.46482        1.71880        0.89011
F          0.71842        1.35214       -1.25401
H          0.19782       -0.88441        1.16721
