11
2-CHLOROPYRIDINE.gamout	Energy:    -707.6273104
C          3.08552        0.21378       -0.16507
C          4.35675       -0.38659       -0.21070
C          1.96211       -0.62054       -0.05948
N          2.04802       -1.96356       -0.00035
C          3.25401       -2.50853       -0.04484
C          4.45685       -1.78300       -0.14972
Cl         3.33860       -4.27358        0.03422
H          2.96714        1.30576       -0.21039
H          5.26653        0.22691       -0.29327
H          0.94424       -0.19929       -0.02000
H          5.42583       -2.29850       -0.18172
