12
2-CIS-1-CHLOROBUTENE.gamout	Energy:    -616.6219687
C          0.49770        0.65506        0.09150
C         -0.19190       -0.50147        0.01236
Cl        -0.42178        2.17177        0.26324
C          1.97965        0.87479        0.05619
C          0.38916       -1.88028       -0.13381
H         -1.29085       -0.43954        0.05882
H          2.26005        1.53358       -0.79097
H          2.32629        1.37254        0.98484
H          2.52163       -0.08262       -0.05101
H          1.49362       -1.88417       -0.17437
H          0.07692       -2.52778        0.71296
H          0.01338       -2.36842       -1.05819
