31
2-CYCLOHEXENYLCYCLOHEXANONE.gamout	Energy:    -542.9670058
O          0.84190       -2.05344        0.04569
C          0.65157        0.36836        0.30414
C          1.40762        1.38219       -0.59629
C         -0.83989        0.23534        0.05455
C          2.88761        1.51369       -0.20795
C         -1.64144       -0.34628        1.20549
C          3.60640        0.15854       -0.28976
C          1.39605       -0.98775        0.27845
C          2.89234       -0.90389        0.57483
C         -3.07308       -0.74899        0.81303
C         -3.72830        0.32833       -0.06398
C         -1.43384        0.62168       -1.09795
C         -2.92001        0.53233       -1.35591
H          0.78116        0.72467        1.35675
H          0.89519        2.36250       -0.53477
H          1.33888        1.05255       -1.65423
H          2.97005        1.91558        0.82582
H          3.38583        2.25110       -0.86961
H         -1.10124       -1.22475        1.61383
H         -1.66538        0.40070        2.03399
H          4.66433        0.25101        0.02849
H          3.62424       -0.18461       -1.34631
H          2.99567       -0.62146        1.64690
H          3.32798       -1.91248        0.45020
H         -3.03453       -1.70515        0.24954
H         -3.67584       -0.94073        1.72368
H         -3.76371        1.28691        0.49742
H         -4.77688        0.05944       -0.30385
H         -0.81838        1.02265       -1.91825
H         -3.25948        1.44802       -1.88583
H         -3.11794       -0.30228       -2.06767
