28
2-DECYNE.gamout	Energy:    -391.5734482
C          6.35665        2.99982        1.64927
C          4.95325        2.47946        2.00726
C          3.79406        3.35061        1.49256
C          6.73977        4.32233        2.35775
C          2.39289        2.82937        1.86317
C          8.10024        4.77206        2.05081
C          1.99856        1.49794        1.20159
C          9.24069        5.12807        1.77656
C          0.56697        1.06037        1.53935
C         10.59937        5.56213        1.45561
H          6.43544        3.14490        0.55131
H          7.11176        2.23292        1.91533
H          4.86679        2.37542        3.11215
H          4.85383        1.45411        1.59655
H          3.89797        4.38045        1.89250
H          3.87336        3.44310        0.38646
H          6.63437        4.18580        3.45723
H          6.02066        5.12289        2.08051
H          1.64103        3.59859        1.58431
H          2.32312        2.72377        2.96877
H          2.10729        1.59762        0.09962
H          2.70577        0.69938        1.50882
H          0.30613        0.10340        1.04697
H          0.43857        0.92128        2.63206
H         -0.17137        1.82009        1.21147
H         11.29793        5.35769        2.29310
H         10.63721        6.65132        1.24731
H         10.98985        5.03723        0.55948
