17
2-ETHYLPYRIDINE.gamout	Energy:    -326.6928287
C          2.24532       -4.68153        0.59900
C          3.20597       -4.03190       -0.41433
C          3.20237       -2.51921       -0.32970
C          4.31295       -1.79205        0.15125
N          2.06760       -1.89963       -0.72359
C          4.23862       -0.39273        0.22359
C          2.00223       -0.56111       -0.65171
C          3.05717        0.24355       -0.18615
H          2.22870       -5.78247        0.47860
H          2.54929       -4.45319        1.63992
H          1.21767       -4.29790        0.45032
H          2.89982       -4.31801       -1.44199
H          4.23701       -4.41114       -0.26305
H          5.22456       -2.32302        0.46309
H          5.09383        0.19228        0.59405
H          1.05725       -0.09986       -0.98652
H          2.95243        1.33746       -0.14981
