27
2-ETHYL-1-HEXANOL.gamout	Energy:    -390.6441797
C          3.67435        2.25355        2.09856
C          4.97251        2.33470        2.93639
C          5.02191        3.59289        3.83728
C          6.21633        2.20231        2.04797
C          3.29678        0.83122        1.65045
C          4.94928        4.93955        3.10226
O          7.36599        2.04789        2.89017
C          2.04344        0.74823        0.75914
C          0.75062        1.23064        1.43371
H          2.84778        2.67719        2.70539
H          3.75634        2.91011        1.20355
H          4.99222        1.45424        3.61703
H          5.94719        3.55256        4.44534
H          4.17640        3.52456        4.55443
H          6.10611        1.32275        1.37472
H          6.31993        3.10536        1.40222
H          4.14944        0.37563        1.10416
H          3.14457        0.19877        2.55311
H          5.02506        5.78051        3.81869
H          3.99585        5.06009        2.55033
H          5.77526        5.05807        2.37299
H          8.16234        1.99545        2.33561
H          2.21632        1.33080       -0.17206
H          1.91253       -0.30566        0.43553
H          0.57215        0.68404        2.38242
H         -0.12892        1.06728        0.78080
H          0.78664        2.31188        1.67212
