24
2-ETHYL-1-HEXENE.gamout	Energy:    -314.2499455
C          3.25473        1.62028        2.97598
C          2.64921        2.79515        2.22549
C          2.04182        2.51879        0.86129
C          2.64264        4.03794        2.75474
C          4.46221        0.96142        2.27074
C          0.81540        1.58581        0.89028
C          5.66987        1.89466        2.10138
C          6.86536        1.22470        1.41348
H          2.47565        0.84360        3.13325
H          3.56346        1.96080        3.98580
H          2.81401        2.07128        0.19725
H          1.75836        3.48424        0.39611
H          3.07750        4.23965        3.74503
H          2.20279        4.89026        2.21500
H          4.15190        0.57506        1.27568
H          4.76582        0.06788        2.85748
H          0.40216        1.45318       -0.12874
H          1.06847        0.57929        1.27737
H          0.01587        2.00431        1.53279
H          5.97532        2.27232        3.10156
H          5.35906        2.79121        1.52495
H          7.71728        1.92460        1.30795
H          7.22417        0.34535        1.98724
H          6.59520        0.86948        0.39794
