21
2-ETHOXYETHYL_ACETATE.gamout	Energy:    -461.2192824
C         -1.94799        1.30602        0.87577
C         -2.85215        0.95402       -0.29071
H         -3.77514        1.55001       -0.20749
H         -3.10999       -0.12397       -0.28759
H         -2.36087        1.16982       -1.26029
C         -0.33728       -0.30821       -0.02499
C          1.03894       -0.81377        0.39500
C          2.72484       -2.33804       -0.29507
C          3.05798       -3.34612       -1.38360
H          2.30378       -4.15570       -1.41114
H          4.04951       -3.79910       -1.19192
H          3.08321       -2.85638       -2.37579
O         -0.74232        0.66195        0.95659
H         -1.05092       -1.15703       -0.06167
H         -0.27815        0.14937       -1.03387
O          1.44421       -1.77114       -0.56622
H          0.98023       -1.26332        1.41435
H          1.75623        0.03942        0.44628
H          3.49276       -1.52848       -0.25532
H          2.71321       -2.82690        0.70876
O         -2.23227        2.11706        1.73422
