26
2-ETHYL-HEXANOIC_ACID.gamout	Energy:    -464.6524717
C         -4.19893       -0.13925       -0.26161
C         -2.86272        0.59749       -0.10781
H         -4.37532       -0.83117        0.58668
H         -4.22155       -0.73970       -1.19371
H         -5.04951        0.56928       -0.29849
C         -1.64716       -0.34134       -0.05452
H         -2.88305        1.21582        0.81538
H         -2.73097        1.31129       -0.94961
C         -0.31546        0.40763        0.09223
H         -1.62158       -0.96441       -0.97574
H         -1.77446       -1.05029        0.79206
C          0.93760       -0.49873        0.08651
H         -0.31811        0.99897        1.03213
H         -0.20500        1.13557       -0.73906
C          2.23888        0.33862        0.12687
C          3.52685       -0.48546        0.01788
H          2.24343        0.92745        1.06735
H          2.18873        1.07232       -0.70429
H          3.64115       -1.17989        0.87385
H          3.54391       -1.08839       -0.91219
H          4.41586        0.17442        0.00793
C          0.89900       -1.44561        1.27914
H          0.93331       -1.11752       -0.83498
O          0.89237       -2.75958        0.90746
H          0.87171       -3.28399        1.73695
O          0.88084       -1.10526        2.45037
