21
2-ETHYL-1-BUTANOL.gamout	Energy:    -312.0758078
C         18.00417       -0.06056        0.00482
C         19.18354        0.93900        0.02996
C         19.18901        1.80786        1.30867
C         20.51986        0.20253       -0.13206
C         16.63228        0.58258       -0.23648
C         20.07510        3.06020        1.24153
O         20.55981       -0.41628       -1.42317
H         18.20105       -0.80582       -0.79069
H         17.99693       -0.62237        0.96563
H         19.08058        1.61322       -0.85092
H         18.14828        2.12390        1.52331
H         19.49269        1.17238        2.17019
H         21.36724        0.91513       -0.02134
H         20.61387       -0.56107        0.67783
H         15.83195       -0.18263       -0.25955
H         16.36420        1.31318        0.55301
H         16.61343        1.11681       -1.20787
H         20.00005        3.65498        2.17301
H         21.14534        2.81308        1.09720
H         19.76821        3.71492        0.40090
H         21.37958       -0.93172       -1.50504
