20
2-ETHYL_BUTYRIC_ACID.gamout	Energy:    -386.0810971
C         51.29394       40.83840       -0.60465
C         50.26104       39.86887       -0.04377
C         50.81442       38.42344        0.01424
C         49.74800       40.33093        1.34244
O         52.41047       40.91394        0.18182
O         51.18328       41.49139       -1.62855
C         51.26368       37.86125       -1.33916
C         49.10674       41.72386        1.34688
H         49.42235       39.90487       -0.76916
H         51.65371       38.39235        0.73853
H         50.01266       37.78323        0.43796
H         49.00863       39.57731        1.68500
H         50.58975       40.29400        2.06357
H         53.01439       41.55394       -0.25057
H         51.61140       36.81546       -1.23513
H         50.43517       37.87133       -2.07508
H         52.09940       38.44663       -1.77187
H         48.72256       41.97864        2.35319
H         49.83167       42.51093        1.05893
H         48.25910       41.77628        0.63521
