20
2-ETHYL-1-NITROBENZENE.gamout	Energy:    -515.0479021
C          7.13725        3.10596       -1.02065
C          7.39500        4.01727        0.19734
C          6.30370        1.88343       -0.68553
C          6.80155        0.61172       -0.29903
C          4.89569        1.99113       -0.76903
N          8.25455        0.34683       -0.17535
C          5.95604       -0.47989       -0.02203
C          4.03756        0.92300       -0.47328
O          8.63281       -0.82645       -0.27917
O          9.00932        1.30458        0.03776
C          4.56906       -0.32327       -0.09610
H          6.58384        3.68123       -1.79115
H          8.10431        2.80776       -1.46376
H          7.97097        4.91135       -0.11154
H          7.97553        3.48312        0.97137
H          6.44250        4.36027        0.64740
H          4.46917        2.95565       -1.08351
H          6.41420       -1.43891        0.25127
H          2.94895        1.06161       -0.54599
H          3.90772       -1.17046        0.13374
