24
2-ETHYL-M-XYLENE.gamout	Energy:    -389.2345239
C          0.88341        2.79816        0.70695
C          2.04383        3.42820        1.50654
C          2.62246        2.50403        2.56557
C          2.08141        2.49839        3.88184
C          3.68950        1.62126        2.24068
C          0.95997        3.43812        4.27379
C          2.60770        1.61168        4.84353
C          4.30757        1.60889        0.85796
C          4.19133        0.74821        3.22788
C          3.65601        0.73845        4.52306
H          1.20808        1.88077        0.17794
H          0.04491        2.51190        1.37153
H          0.49376        3.50839       -0.04922
H          1.68809        4.36450        1.98034
H          2.83881        3.73822        0.79900
H          1.27397        4.50099        4.20836
H          0.07139        3.32654        3.62030
H          0.63518        3.25059        5.31391
H          2.18548        1.61120        5.86008
H          3.55621        1.41868        0.06561
H          4.79080        2.57861        0.61578
H          5.08195        0.82329        0.78261
H          5.01701        0.06733        2.97051
H          4.05730        0.05166        5.28292
