20
2-ETHYL-4-ETHOXYMETHYL-1,3-DIOXOLANE.gamout	Energy:    -386.0398820
C          2.91392        4.20735        6.63288
C          2.96583        3.46370        5.29278
C          3.80564        2.19792        5.34509
C          5.05110       -0.48958        3.47279
C          5.88819        1.38521        5.05506
C          5.08261        0.99941        3.79402
O          5.17594        2.50474        5.57515
O          3.75917        1.49318        4.09795
H          2.51855        3.55558        7.43820
H          3.92110        4.55027        6.93825
H          2.25565        5.09475        6.56580
H          3.38159        4.10616        4.49068
H          1.94740        3.16237        4.97351
H          3.44570        1.50983        6.15470
H          4.36901       -0.68628        2.62449
H          6.06236       -0.84609        3.19118
H          4.69890       -1.07305        4.34587
H          5.89992        0.54391        5.78944
H          6.92746        1.69644        4.84424
H          5.46108        1.57006        2.91654
