12
2-FURANCARBOXYLIC_ACID.gamout	Energy:    -418.3344728
C         -5.74798       -0.35349       -0.12102
O         -4.94641       -1.28480       -0.73988
C         -7.08018       -0.64780       -0.35954
C         -5.13882        0.73892        0.64668
C         -5.76850       -2.16454       -1.36751
C         -7.09307       -1.82475       -1.16975
O         -3.77671        0.69227        0.65153
O         -5.78352        1.60430        1.22343
H         -7.93147       -0.07111        0.01424
H         -5.27699       -2.97575       -1.91230
H         -7.96507       -2.35863       -1.56099
H         -3.48153        1.45849        1.18589
