21
2-HEXANETHIOL.gamout	Energy:    -635.0230088
C         33.93037       30.03350       -0.08382
C         32.62047       29.22361       -0.06114
C         33.72751       31.55678       -0.03471
C         31.74191       29.42026       -1.29973
S         33.11765       27.43815        0.14718
C         35.05317       32.33204        0.04157
C         34.86830       33.85408        0.08543
H         34.55052       29.72910        0.78616
H         34.51014       29.76091       -0.99257
H         32.05058       29.50477        0.84884
H         33.16118       31.89776       -0.92732
H         33.10153       31.81702        0.84780
H         30.82460       28.80353       -1.24089
H         31.42491       30.47950       -1.39185
H         32.28964       29.13518       -2.21940
H         31.86104       26.90697        0.12762
H         35.61502       31.99882        0.94058
H         35.68379       32.05896       -0.83202
H         35.84185       34.37891        0.14214
H         34.34098       34.22106       -0.81865
H         34.27010       34.16043        0.96771
