22
2-HEPTANONE.gamout	Energy:    -350.1631218
O         -2.14211        4.37439       -2.03043
C          1.12096        1.51531       -0.08106
C         -0.25305        1.85790       -0.67658
C          1.54558        0.06060       -0.33482
C         -0.66083        3.33090       -0.45015
C          2.91530       -0.29134        0.25899
C         -2.02574        3.65368       -1.04569
C         -3.25646        3.03047       -0.39084
H          1.88562        2.20208       -0.50581
H          1.10870        1.71319        1.01369
H         -0.24273        1.65188       -1.76820
H         -1.01908        1.18067       -0.24134
H          0.77210       -0.62134        0.08063
H          1.55554       -0.12681       -1.43039
H          0.07825        4.01092       -0.91612
H         -0.68609        3.53830        0.64276
H          2.92391       -0.15458        1.35950
H          3.18743       -1.34397        0.04905
H          3.71272        0.35294       -0.16387
H         -3.97412        3.83737       -0.14674
H         -3.75542        2.36580       -1.12369
H         -3.02459        2.45243        0.52274
