24
2-HEPTANOL.gamout	Energy:    -351.3668858
C          3.36568        1.54413        0.09546
C          2.08997        0.69134        0.05364
C          3.13204        3.05893        0.03988
C          2.37982       -0.81648        0.00445
C          2.41073        3.61768        1.27031
O          4.43612        3.65100       -0.10957
C          1.11667       -1.68912       -0.03539
C          1.41272       -3.19304       -0.08660
H          3.95145        1.31139        1.01115
H          4.01478        1.27938       -0.76539
H          1.48489        0.97820       -0.83517
H          1.45327        0.90492        0.93972
H          2.52470        3.28389       -0.87121
H          2.99581       -1.10053        0.88632
H          3.00730       -1.03775       -0.88758
H          2.29739        4.71854        1.19744
H          1.39375        3.18907        1.36863
H          2.98600        3.38656        2.18886
H          4.34148        4.61915       -0.13392
H          0.50583       -1.39827       -0.91761
H          0.48924       -1.46495        0.85504
H          0.48063       -3.79079       -0.11856
H          1.99083       -3.51875        0.80202
H          2.00938       -3.45431       -0.98451
