14
2-IODOBUTANE.gamout	Energy:    -455.5752788
C         34.99625       30.02669       -0.02831
C         33.65460       29.28681       -0.06207
C         32.79230       29.54468       -1.29058
I         34.03743       27.09415        0.11367
C         34.82989       31.55461        0.06558
H         35.57814       29.66791        0.84262
H         35.58682       29.76107       -0.92984
H         33.08678       29.48095        0.86788
H         31.84806       28.97139       -1.25517
H         32.52861       30.62255       -1.33535
H         33.32753       29.28256       -2.22363
H         35.81867       32.04059        0.17271
H         34.34793       31.97803       -0.83703
H         34.21722       31.84033        0.94443
