11
2-IODOPROPANE.gamout	Energy:    -416.2912575
I         -0.67226        0.00000        0.00998
C          1.52675       -0.00000       -0.40318
C          2.14104        1.28089        0.14201
C          2.14105       -1.28089        0.14200
H          1.52903        0.00000       -1.50866
H          2.06759        1.32748        1.24590
H          3.21906        1.30582       -0.13015
H          1.65945        2.18100       -0.28128
H          1.65945       -2.18100       -0.28128
H          3.21906       -1.30582       -0.13015
H          2.06760       -1.32748        1.24590
