19
2-ISOPROPOXYETHANOL.gamout	Energy:    -347.9530549
O         -0.19846        0.66456        0.14720
O          2.21888        3.23172        1.13942
C         -1.58506        0.33008        0.32779
C          0.22535        1.84175        0.81342
C         -2.50413        1.23572       -0.50290
C         -1.72950       -1.14514       -0.04236
C          1.71206        2.05374        0.51160
H         -1.83345        0.45896        1.41053
H         -0.34380        2.74075        0.48375
H          0.07110        1.73814        1.91760
H         -3.56650        0.98897       -0.30802
H         -2.36052        2.30517       -0.25721
H         -2.30389        1.09508       -1.58342
H         -2.77340       -1.48456        0.10062
H         -1.06558       -1.77088        0.58316
H         -1.45591       -1.30060       -1.10474
H          2.28616        1.14711        0.80507
H          1.84962        2.19852       -0.57715
H          2.28285        3.07636        2.09807
