18
2-METHYL-2-PENTENE.gamout	Energy:    -235.6844667
C          2.91067        2.63318        1.95325
C          4.01145        1.88919        2.22480
C          1.46583        2.20446        1.94523
C          5.39497        2.49316        2.17603
C          3.98485        0.42619        2.59863
C          0.78667        2.38874        0.57393
H          3.08284        3.69354        1.69199
H          1.37145        1.15040        2.27201
H          0.90905        2.80689        2.69851
H          5.90643        2.39310        3.15804
H          5.37619        3.56573        1.90687
H          6.03509        1.96184        1.43858
H          4.59450       -0.16889        1.88518
H          4.43956        0.26623        3.60048
H          2.96670        0.00062        2.61267
H          0.84750        3.44345        0.23712
H          1.27263        1.76310       -0.20053
H         -0.28453        2.11027        0.61928
