32
2-METHYLNONANE.gamout	Energy:    -394.0502232
C          4.66646       -0.87393        0.04335
C          3.48669        0.07473        0.30240
C          3.71909        1.42666       -0.38857
C          2.15608       -0.58032       -0.12676
C          0.89153        0.19433        0.26882
C         -0.41712       -0.48500       -0.16124
C         -1.66938        0.30348        0.24989
C         -2.99378       -0.34533       -0.17723
C         -4.23617        0.45693        0.23988
C         -5.55900       -0.18975       -0.18983
H          5.62352       -0.43068        0.38317
H          4.53174       -1.83940        0.56908
H          4.76559       -1.09113       -1.04062
H          3.42813        0.25227        1.40051
H          3.78342        1.29457       -1.48898
H          2.90777        2.14960       -0.18190
H          4.66875        1.88979       -0.05381
H          2.17105       -0.73278       -1.23010
H          2.10191       -1.59775        0.31675
H          0.88683        0.33533        1.37247
H          0.91863        1.21592       -0.16614
H         -0.41086       -0.62311       -1.26535
H         -0.46499       -1.50942        0.27059
H         -1.66266        0.43964        1.35423
H         -1.61130        1.32858       -0.17877
H         -2.99499       -0.47687       -1.28226
H         -3.05964       -1.37122        0.24874
H         -4.22784        0.58806        1.34408
H         -4.16608        1.48203       -0.18469
H         -5.61384       -0.29945       -1.29232
H         -5.67171       -1.20137        0.25053
H         -6.43112        0.41404        0.12993
