12
2-METHYLFURAN.gamout	Energy:    -269.1639637
C         -5.69897       -0.70548        0.04899
O         -5.15814       -1.80678       -0.56240
C         -6.96379       -0.46991       -0.43093
C         -6.08901       -2.29055       -1.45292
C         -7.21653       -1.49935       -1.40628
C         -5.70421       -3.49843       -2.23495
H         -5.06621       -0.21006        0.79016
H         -7.63405        0.34068       -0.12494
H         -8.12425       -1.63801       -2.00224
H         -5.48241       -4.36033       -1.57199
H         -6.52961       -3.78730       -2.91118
H         -4.79995       -3.31556       -2.85165
