10
2-MERCAPTOETHANOL.gamout	Energy:    -553.0496450
S          0.43820       -0.38051        0.41073
C          1.80526        0.83272        0.17011
C          1.30298        2.24051       -0.17156
O          2.37496        3.16317       -0.37238
H         -0.02464       -0.35304       -0.87252
H          2.34554        0.83684        1.13893
H          2.51018        0.47146       -0.60335
H          0.74699        2.21674       -1.12985
H          0.59663        2.59163        0.61337
H          2.80400        3.34455        0.48272
