16
2-METHYL-TRANS-1,3-PENTADIENE.gamout	Energy:    -234.4559068
C          0.97192        0.98598        1.15344
C          1.76844        2.07917        1.07391
C          1.19796        3.46703        0.88203
C          3.24016        2.00423        1.18969
C          4.02818        0.99617        0.74951
C          5.52059        0.93956        0.89970
H         -0.11894        1.06475        1.03877
H          1.38635       -0.01322        1.34889
H          1.50252        4.13365        1.71683
H          1.58292        3.93178       -0.05017
H          0.09358        3.45236        0.83597
H          3.73089        2.87999        1.65392
H          3.54960        0.14746        0.22941
H          6.02484        0.85467       -0.08681
H          5.91325        1.83832        1.41371
H          5.82831        0.04595        1.48464
