15
2-MERCAPTOBENZOTHIAZOLE.gamout	Energy:   -1120.5280245
C         -0.95158       -0.06853        0.65068
C         -0.39146       -1.34210        0.90137
C         -0.15949        0.99135        0.18113
C          0.97088       -1.58595        0.68851
C          1.78981       -0.53807        0.21628
C          1.20684        0.74504       -0.03191
S          2.45694        1.84540       -0.60876
N          3.14879       -0.63055       -0.04072
C          3.62837        0.49941       -0.46640
S          5.33826        0.68094       -0.87624
H         -2.02454        0.09862        0.82528
H         -1.03702       -2.15288        1.26904
H         -0.60164        1.97871       -0.01082
H          1.42001       -2.57074        0.87854
H          5.26003        1.99305       -1.23990
