18
2-METHOXY-2-METHYLPROPANE.gamout	Energy:    -272.7828504
C          1.10492        1.67315        0.16986
C          0.92435        3.04516        0.84565
H          1.54498        3.14666        1.75680
H         -0.13123        3.18047        1.15120
H          1.18748        3.86129        0.14514
C          0.18518        1.55257       -1.05405
H         -0.87853        1.61468       -0.75407
H          0.35322        0.58296       -1.55934
H          0.39794        2.36398       -1.77549
C          0.82749        0.52806        1.16450
H         -0.21874        0.57383        1.52562
H          1.48544        0.58531        2.05316
H          0.98503       -0.45047        0.67249
C          3.53971        1.76756        0.46320
O          2.43691        1.53361       -0.39279
H          3.63461        2.83800        0.75358
H          4.44335        1.48273       -0.10697
H          3.50831        1.15122        1.39033
