16
2-METHYLTHIACYCLOPENTANE.gamout	Energy:    -594.5364317
C          2.33550       -0.92401        5.12094
C          1.81617        0.20320        4.23046
C          2.05730       -0.00435        2.72756
S          2.64130        1.83122        4.63383
C          1.96400        1.36782        2.05125
C          2.86616        2.30956        2.85848
H          2.15268       -0.71506        6.19217
H          3.42483       -1.06446        4.97930
H          1.82037       -1.87519        4.87261
H          0.72975        0.34298        4.41088
H          3.06987       -0.43548        2.57660
H          1.32404       -0.72506        2.31238
H          2.27167        1.33169        0.98675
H          0.91618        1.73121        2.08313
H          2.59470        3.37375        2.73529
H          3.93093        2.18105        2.58066
