18
2-METHYL-2-BUTANOL.gamout	Energy:    -272.7998297
C          1.82924        0.87408       -0.12020
O          3.14541        1.40301       -0.40949
C          0.96064        2.11022        0.15136
C          1.30731        0.10236       -1.34670
C          1.89472       -0.07799        1.10430
C          2.45595        0.53720        2.39076
H          3.73377        0.65922       -0.63301
H         -0.07022        1.81196        0.42281
H          1.38277        2.71566        0.97445
H          0.91785        2.74693       -0.75231
H          0.27695       -0.27030       -1.17868
H          1.95072       -0.77586       -1.56117
H          1.30133        0.75511       -2.24029
H          0.87583       -0.48173        1.28709
H          2.51622       -0.95290        0.81051
H          2.59186       -0.23907        3.16835
H          3.43743        1.01502        2.20619
H          1.77881        1.30728        2.80948
