24
2-METHYL-3-ETHYL-1-PENTENE.gamout	Energy:    -314.2483996
C          2.91145        3.19127        2.49412
C          2.84081        1.66484        2.48645
C          1.41195        1.15829        2.12900
C          3.92683        0.96856        1.64123
C          2.43258        3.84817        3.76714
C          3.36381        3.92822        1.45798
C          0.97372        1.40163        0.68014
C          5.34487        1.14999        2.19680
H          3.01158        1.34585        3.54033
H          1.38267        0.06830        2.34249
H          0.67785        1.62268        2.81962
H          3.88564        1.32482        0.59173
H          3.68661       -0.11596        1.59863
H          3.08428        3.55897        4.61981
H          1.40675        3.51638        4.03114
H          2.43019        4.95234        3.69328
H          3.73952        3.47411        0.53076
H          3.38196        5.02761        1.50829
H          1.00608        2.47894        0.42557
H         -0.06120        1.04219        0.51959
H          1.62533        0.86590       -0.03737
H          5.41343        0.74947        3.22818
H          5.62952        2.21957        2.23428
H          6.09275        0.61969        1.57702
