19
2-METHYL-1,5-HEXADIENE.gamout	Energy:    -273.7330056
C          2.27655        2.00080        3.00853
C          1.34217        1.92264        1.81547
C          3.77601        1.83727        2.63989
C          1.42009        3.05890        0.82224
C          0.48388        0.89212        1.65871
C          4.68591        1.94823        3.83352
C          5.51316        0.98396        4.27716
H          2.14241        2.98476        3.51258
H          2.00511        1.22343        3.75029
H          4.05300        2.62175        1.90156
H          3.92556        0.85813        2.13999
H          0.68698        2.94087        0.00261
H          2.42969        3.13244        0.36566
H          1.23040        4.03312        1.32158
H          0.43011        0.07504        2.39375
H         -0.19286        0.83365        0.79311
H          4.64733        2.90694        4.38344
H          6.14774        1.13346        5.16263
H          5.58624        0.01097        3.76554
