21
2-METHYL-2-PENTANOL.gamout	Energy:    -312.0847822
C          1.95277       -1.14958       -0.21863
C          0.91838       -0.02196       -0.05454
C          1.14260        1.07424       -1.11027
C         -0.50577       -0.61215       -0.12371
C         -1.66037        0.38787        0.02246
C         -3.02855       -0.30299        0.08475
O          1.03203        0.54416        1.27397
H          2.98570       -0.75567       -0.12670
H          1.80176       -1.91892        0.56171
H          1.86505       -1.63066       -1.21324
H          0.93914        0.69297       -2.13064
H          0.48320        1.94066       -0.92181
H          2.19276        1.42929       -1.08766
H         -0.60500       -1.16467       -1.08245
H         -0.57897       -1.37104        0.68364
H         -1.49724        0.99143        0.93794
H         -1.65275        1.10102       -0.82822
H         -3.21218       -0.91466       -0.82263
H         -3.09755       -0.97769        0.96184
H         -3.84872        0.43642        0.16112
H          1.91464        0.94510        1.36493
