24
2-METHYL-2-HEXANOL.gamout	Energy:    -351.3701368
C          2.57951       -1.02456       -0.09393
C          1.44229        0.01280       -0.05517
C          1.62631        1.05205       -1.17363
C          0.07937       -0.70683       -0.14875
C         -1.16420        0.18964       -0.06064
C         -2.47158       -0.61257        0.02448
C         -3.72143        0.26890        0.14141
O          1.43438        0.67120        1.23352
H          3.56657       -0.52885        0.00639
H          2.46404       -1.74644        0.73580
H          2.58207       -1.58177       -1.05195
H          1.54659        0.58000       -2.17321
H          0.86635        1.85102       -1.09973
H          2.62896        1.52189       -1.10746
H          0.06149       -1.29399       -1.09121
H          0.04706       -1.44408        0.68076
H         -1.07015        0.84015        0.83291
H         -1.21174        0.86841       -0.93909
H         -2.56311       -1.27000       -0.86783
H         -2.41665       -1.29588        0.89934
H         -3.68302        0.90060        1.05222
H         -3.81744        0.94655       -0.73131
H         -4.64253       -0.34256        0.19577
H          2.29037        1.11803        1.35670
