17
2-METHYLBUTYRIC_ACID.gamout	Energy:    -346.7967804
C         51.83208       30.90293        0.16575
C         50.62491       30.03771       -0.17993
C         49.30385       30.81263       -0.02560
C         50.80622       29.49725       -1.61779
O         52.86437       30.15494        0.65854
O         51.92888       32.10689       -0.00016
C         48.93369       31.13424        1.42714
H         50.63629       29.17637        0.51993
H         49.37487       31.74707       -0.61851
H         48.49990       30.20285       -0.48694
H         49.96724       28.81940       -1.86740
H         51.75051       28.93193       -1.72718
H         50.80915       30.32902       -2.34837
H         53.61369       30.77117        0.80526
H         47.96171       31.66085        1.47939
H         48.84884       30.20849        2.03129
H         49.69020       31.78678        1.90554
