21
2-METHYLNAPHTHALENE.gamout	Energy:    -424.9144866
C          4.66697        1.10908        1.97280
C          5.23505        0.86226        0.59312
C          3.37874        0.70510        2.30916
C          5.44368        1.79136        2.95730
C          2.81772        0.95635        3.59542
C          4.93587        2.05427        4.21849
C          3.61572        1.65047        4.57754
C          1.49598        0.54656        3.94919
C          3.06030        1.90482        5.86396
C          0.98520        0.80961        5.21082
C          1.77357        1.49386        6.17461
H          4.75153       -0.00688        0.10879
H          5.07256        1.74379       -0.06229
H          6.32684        0.67905        0.62670
H          2.76410        0.17424        1.56647
H          6.46500        2.11165        2.70213
H          5.55100        2.58176        4.96300
H          0.88635        0.01687        3.20252
H          3.67244        2.43429        6.60818
H         -0.03416        0.48966        5.47264
H          1.35846        1.69664        7.17184
