15
2-METHYL-2-PROPANETHIOL.gamout	Energy:    -556.4552804
C          3.69524        2.08751        0.99743
C          2.25586        2.14888        1.53269
C          1.94751        0.92270        2.40267
C          2.02147        3.45127        2.30982
S          1.18034        2.12492       -0.00622
H          4.41021        2.09995        1.84405
H          3.91874        2.95486        0.34703
H          3.86738        1.16157        0.41589
H          2.09604       -0.01529        1.83624
H          0.90345        0.94310        2.76947
H          2.61839        0.90976        3.28722
H          0.97795        3.52106        2.67251
H          2.22500        4.33427        1.67629
H          2.69241        3.49053        3.19353
H         -0.02107        2.18435        0.63756
