18
2-METHYL-2-BUTANETHIOL.gamout	Energy:    -595.7392425
C          1.99999        2.68932        2.46173
C          0.59945        2.83903        1.85972
C          3.05430        1.94425        1.60504
C          4.37883        1.84490        2.37800
C          2.57237        0.54431        1.18346
S          3.35862        2.85821       -0.01500
H          2.40553        3.69381        2.70684
H          1.93027        2.14842        3.43243
H         -0.04746        3.43638        2.53059
H          0.64788        3.35064        0.87932
H          0.10379        1.85965        1.71291
H          5.16070        1.35711        1.76661
H          4.74754        2.84715        2.67254
H          4.23780        1.25081        3.30610
H          3.36057        0.00912        0.62007
H          2.32773       -0.05231        2.08579
H          1.66945        0.59031        0.54641
H          3.86623        3.99513        0.54351
