19
2-METHYL_TETRAHYDROFURAN.gamout	Energy:    -310.8695718
C          3.49685        3.64125        0.86463
C          3.66619        2.52579        1.90762
C          3.20871        1.13940        1.40977
O          3.03817        2.85573        3.16149
C          1.67659        1.01250        1.38096
C          1.61072        2.80324        3.14274
C          1.09479        1.41891        2.74240
H          4.14022        3.43390       -0.01201
H          2.45680        3.73396        0.49684
H          3.79991        4.61110        1.30064
H          4.74164        2.46808        2.17036
H          3.64102        0.94386        0.40752
H          3.62236        0.37134        2.09546
H          1.24936        1.65872        0.58444
H          1.38778       -0.02637        1.12756
H          1.29277        3.07308        4.16715
H          1.19846        3.57652        2.45076
H         -0.01398        1.42705        2.71644
H          1.40295        0.68575        3.51695
