13
2-METHYL-1,3-BUTADIENE.gamout	Energy:    -195.1640614
C          1.84464        2.17528        1.06655
C          3.27494        2.13072        1.46101
C          4.00804        0.86222        1.07826
C          3.90338        3.13703        2.11650
C          0.95580        3.17077        1.27569
H          1.48307        1.27448        0.53915
H          3.98097        0.70496       -0.02081
H          3.52751       -0.02670        1.53923
H          5.06617        0.88684        1.39761
H          4.96542        3.06071        2.38918
H          3.38629        4.06461        2.40201
H          1.22564        4.10451        1.79228
H         -0.08339        3.07932        0.93125
