21
2-METHYL-2-HEXENE.gamout	Energy:    -274.9699747
C          1.27565        1.16142        4.66084
C          1.76528        1.89734        5.68911
C          1.87265        0.94070        3.29607
C          1.00400        2.00845        6.99166
C          3.07259        2.65434        5.65442
C          0.98703        1.47896        2.14987
C          1.55984        1.18361        0.75773
H          0.30331        0.66120        4.82472
H          2.01790       -0.15321        3.13818
H          2.88047        1.39683        3.22152
H          0.05739        1.43699        6.96331
H          0.76322        3.06851        7.22467
H          1.61162        1.63215        7.84309
H          3.60628        2.56512        4.69167
H          2.90273        3.73486        5.85177
H          3.75429        2.29647        6.45622
H         -0.02853        1.03663        2.23742
H          0.85595        2.57385        2.28137
H          1.66864        0.09206        0.59262
H          0.90608        1.58112       -0.04333
H          2.56211        1.64155        0.63209
