20
2-METHYLPENTANE.gamout	Energy:    -236.9092428
C          1.29494        1.62274        2.16643
C          0.43355        2.86467        1.89390
C         -1.07252        2.58861        1.99305
C          2.81705        1.81873        2.00663
C          3.39116        2.85978        2.98057
C          3.55185        0.47753        2.15871
H          0.97593        0.81341        1.47372
H          1.08363        1.24090        3.19142
H          0.67412        3.25369        0.88017
H          0.70469        3.67644        2.60056
H         -1.66628        3.49980        1.78677
H         -1.34683        2.22983        3.00622
H         -1.38355        1.80822        1.26884
H          2.99347        2.18730        0.97006
H          4.48477        2.96807        2.84070
H          3.21880        2.54804        4.03226
H          2.93809        3.85979        2.84585
H          3.40416        0.06044        3.17686
H          4.64118        0.59704        1.99964
H          3.17959       -0.27122        1.43212
