24
2-METHYL-CIS-3-HEPTENE.gamout	Energy:    -314.2505377
C          1.00789       -1.08721       -0.60572
C          1.99307       -0.10064        0.05553
C          2.02197       -0.30980        1.55111
C          1.65144        0.54614        2.52920
C          1.13443        1.95412        2.38800
C          2.04114        3.00223        3.06967
C          1.48782        4.42903        2.98653
C          3.40353       -0.25173       -0.55004
H          0.97985       -0.94483       -1.70461
H         -0.01787       -0.95562       -0.21194
H          1.31414       -2.13463       -0.40636
H          1.63838        0.93018       -0.15502
H          2.38773       -1.30318        1.86983
H          1.74594        0.18613        3.56988
H          0.12137        2.01816        2.84849
H          1.00356        2.21941        1.31894
H          3.04765        2.95783        2.60234
H          2.18704        2.71923        4.13497
H          1.36314        4.75166        1.93251
H          2.16581        5.15181        3.48027
H          0.49584        4.51148        3.47738
H          3.81444       -1.26713       -0.36522
H          4.10732        0.48052       -0.11066
H          3.38363       -0.09860       -1.64812
