21
2-METHYL-3-PENTANOL.gamout	Energy:    -312.0811091
C         -1.53477        1.63628       -0.04183
C         -1.16958        0.18451        0.31187
C         -2.24398       -0.78085       -0.21162
C          0.23269       -0.21868       -0.20901
C          1.37207        0.67838        0.30379
C          2.75051        0.29089       -0.24488
O          0.50837       -1.60405        0.07263
H         -0.86990        2.37487        0.44305
H         -1.48404        1.79886       -1.13876
H         -2.57021        1.86555        0.27835
H         -1.13276        0.10024        1.42423
H         -2.30963       -0.72339       -1.31799
H         -2.01645       -1.82758        0.05716
H         -3.23821       -0.51963        0.19922
H          0.21505       -0.17639       -1.32128
H          1.14916        1.72989        0.03357
H          1.37206        0.64008        1.41696
H          3.00285       -0.75479        0.01328
H          2.77037        0.37579       -1.35001
H          3.54092        0.95102        0.16058
H          0.56592       -1.70916        1.04065
