15
2-METHYL-1-PROPANETHIOL.gamout	Energy:    -556.4524871
C          1.62580        2.63992        1.37882
S         -0.00646        1.78824        1.22925
C          2.85988        1.82245        0.95423
C          3.10891        0.61748        1.87553
C          4.09420        2.74340        0.90283
H          1.51056        3.52722        0.72463
H          1.73938        3.01721        2.41586
H          0.14266        0.92434        2.27320
H          2.66747        1.44214       -0.07269
H          4.00817        0.05620        1.55503
H          3.27388        0.94868        2.92253
H          2.25507       -0.08711        1.86524
H          4.32271        3.16112        1.90538
H          4.98885        2.18691        0.56081
H          3.93980        3.59405        0.20897
