24
2-METHYL-1-HEPTENE.gamout	Energy:    -314.2491873
C          1.81202        0.96491        1.65510
C          0.79289        2.06552        1.98605
C          3.19424        1.14739        2.30878
C          6.30550        0.75974        0.84342
C          6.44810        1.54618        1.93039
C          7.72969        1.56063        2.73209
C          5.38048        2.50557        2.43263
C          3.96810        2.39134        1.83683
H          1.39882       -0.01551        1.97322
H          1.93832        0.89808        0.55217
H          1.11408        3.05698        1.60998
H          0.64526        2.15453        3.08213
H         -0.19354        1.84593        1.53177
H          3.80583        0.24288        2.11370
H          3.07239        1.20248        3.41408
H          7.12262        0.10433        0.50765
H          5.38260        0.73868        0.24727
H          8.15297        2.58672        2.78777
H          8.49729        0.89311        2.29863
H          7.54312        1.24183        3.78019
H          5.31531        2.40292        3.54034
H          5.76864        3.53769        2.27274
H          4.02390        2.40306        0.72637
H          3.40386        3.30394        2.11739
