22
2-METHYL-1-PHENYL-1-PROPENE.gamout	Energy:    -388.0088881
C          2.07581        1.35289        3.98782
C          2.54168        1.38488        2.70881
C          3.92442        1.56942        2.22299
C          2.94012        1.45114        5.22296
C          0.60022        1.17389        4.25729
C          4.34390        0.86710        1.06370
C          4.85400        2.45404        2.82679
C          5.64185        1.01042        0.55365
C          6.15337        2.59912        2.31522
C          6.55774        1.87334        1.18163
H          1.79784        1.21669        1.91015
H          2.83640        2.44493        5.71125
H          4.01115        1.28580        5.00997
H          2.61544        0.70218        5.97526
H          0.00941        1.10415        3.32479
H          0.20282        2.02276        4.85498
H          0.41438        0.25717        4.85821
H          3.63267        0.19022        0.56570
H          4.54267        3.06165        3.68695
H          5.94103        0.44558       -0.34202
H          6.85324        3.29607        2.80022
H          7.57548        1.98996        0.78119
