18
2-METHOXYETHYL_ACETATE.gamout	Energy:    -421.9381527
O          0.83549       -0.50211       -0.00166
O         -2.65128        0.45087       -0.00307
O          2.26362        1.26322        0.00699
C         -0.27897        0.41644        0.00076
C         -1.54440       -0.43221       -0.00518
C          2.07723        0.05932        0.00218
C         -3.89651       -0.22577       -0.00834
C          3.15062       -1.00545       -0.00038
H         -0.23320        1.06339        0.89884
H         -0.23015        1.07169       -0.89110
H         -1.56146       -1.09722        0.89191
H         -1.55841       -1.08898       -0.90836
H         -4.01212       -0.87154        0.89316
H         -4.00868       -0.86378       -0.91579
H         -4.68905        0.54446       -0.00656
H          3.04340       -1.65133       -0.89346
H          3.04100       -1.65787        0.88763
H          4.14331       -0.52761        0.00274
