20
2-METHYL-5-ETHYLPYRIDINE.gamout	Energy:    -365.9822766
C          1.79467        2.17077       -0.93407
C          2.71549        1.67271        0.19718
C          2.97256        0.18284        0.13770
C          3.96442       -0.37287       -0.69082
C          2.20738       -0.73250        0.88997
C          4.13818       -1.76213       -0.73505
N          2.36026       -2.06345        0.85563
C          3.31039       -2.58775        0.05392
C          3.44176       -4.08997        0.05161
H          1.63755        3.26413       -0.86151
H          2.23047        1.94859       -1.92798
H          0.80501        1.67583       -0.88426
H          2.26348        1.93290        1.17655
H          3.68608        2.20801        0.14976
H          4.60545        0.28379       -1.29902
H          1.42251       -0.35058        1.56721
H          4.91319       -2.20834       -1.37549
H          3.69059       -4.46075        1.06652
H          2.47741       -4.55917       -0.22876
H          4.22222       -4.43547       -0.65137
