24
2-METHYL-TRANS-3-HEPTENE.gamout	Energy:    -314.2521466
C          1.47965        1.62782        4.48641
C          1.43353        2.44350        3.41451
C          2.04640        1.97847        5.84108
C          0.86533        2.08662        2.06728
C          3.21191        1.03586        6.19639
C          0.94727        1.93839        6.92159
C          1.88394        2.19885        0.91144
C          3.03757        1.19447        1.00350
H          1.06816        0.60458        4.38675
H          1.84584        3.46570        3.51607
H          2.43884        3.01718        5.78204
H          0.45154        1.05618        2.10202
H          0.00956        2.76046        1.84223
H          4.01613        1.09168        5.43831
H          2.86184       -0.01638        6.23746
H          3.64738        1.28538        7.18482
H          0.50671        0.92275        6.99821
H          1.35587        2.20397        7.91701
H          0.12932        2.64271        6.67957
H          1.34170        2.05854       -0.04634
H          2.28834        3.23375        0.88338
H          3.73947        1.31176        0.15551
H          2.65887        0.15222        0.99256
H          3.61349        1.32397        1.94107
