18
2-METHYL-1-PENTENE.gamout	Energy:    -235.6807951
C          2.66215        2.21747        3.06245
C          2.15381        1.39309        1.89338
C          3.15111        1.39071        4.27583
C          0.88539        0.60390        2.12629
C          2.78876        1.38397        0.70154
C          4.35945        0.49719        3.97114
H          3.48759        2.87042        2.71094
H          1.84747        2.89275        3.40673
H          2.31712        0.77450        4.67282
H          3.41117        2.10110        5.08877
H          0.99893       -0.11210        2.96685
H          0.05055        1.28145        2.40805
H          0.58363        0.03501        1.22749
H          2.41669        0.78875       -0.14609
H          3.70653        1.96793        0.53411
H          4.12533       -0.25058        3.18747
H          5.21599        1.09930        3.60538
H          4.69168       -0.04985        4.87519
