16
2-METHYL-1,4-PENTADIENE.gamout	Energy:    -234.4482057
C          3.28887        2.08723        1.77205
C          1.80914        1.81421        2.01462
C          4.18926        1.01975        2.35422
C          1.34550        1.88966        3.44928
C          0.97391        1.51718        0.99687
C          5.13129        1.22030        3.29338
H          3.46487        2.15619        0.67744
H          3.56600        3.07118        2.21109
H          4.03114        0.00023        1.95902
H          1.51361        2.90631        3.86587
H          0.27036        1.64951        3.54418
H          1.92249        1.19085        4.09022
H         -0.09341        1.31206        1.16918
H          1.32879        1.47170       -0.04395
H          5.75342        0.39493        3.66926
H          5.31946        2.22036        3.71593
