19
2-METHYL-3-HEXYNE.gamout	Energy:    -273.7190357
C         16.92286        0.13299        0.35916
C         18.21853        0.81790        0.28994
C         15.80065        0.84726       -0.42137
C         19.29024        1.41086        0.21483
C         20.59459        2.09023        0.15714
C         20.95311        2.73882        1.51225
C         21.70381        1.12401       -0.31417
H         17.03836       -0.90389       -0.02475
H         16.62261        0.02628        1.42425
H         14.85124        0.28449       -0.33333
H         15.63682        1.86967       -0.03110
H         16.05762        0.92999       -1.49459
H         20.51781        2.90598       -0.59674
H         21.91637        3.27965        1.43576
H         20.17431        3.45641        1.83063
H         21.04932        1.96527        2.29887
H         22.66933        1.65951       -0.39898
H         21.45894        0.68574       -1.29918
H         21.82726        0.29465        0.40936
