27
2-METHYL-1-OCTENE.gamout	Energy:    -353.5332146
C          2.55447        1.29055        0.96994
C          3.96833        1.47960        1.56997
C          4.42589        2.94171        1.68541
C          1.43580        1.94044        1.77701
C          5.83783        3.12379        2.27225
C          0.88312        3.24519        1.25352
C          0.96281        1.36439        2.90274
C          6.98131        2.60663        1.38301
C          8.37204        2.87319        1.97464
H          2.35739        0.20222        0.88600
H          2.54543        1.68945       -0.06697
H          3.99378        1.01522        2.57936
H          4.68527        0.90806        0.94402
H          4.38013        3.42044        0.68134
H          3.70575        3.49167        2.32608
H          5.89149        2.62275        3.26474
H          6.00373        4.20488        2.47002
H          1.68396        4.00455        1.13295
H          0.43736        3.10178        0.24565
H          0.10442        3.66231        1.91965
H          1.35596        0.40128        3.26316
H          0.16864        1.83336        3.50255
H          6.90330        3.08559        0.38240
H          6.86241        1.51611        1.21113
H          8.54377        3.95906        2.12197
H          8.48651        2.38107        2.96195
H          9.17581        2.49242        1.31469
