18
2-METHYL-1-BUTANOL.gamout	Energy:    -272.7921513
C         -2.33412        0.81741       -0.01457
C         -0.90769        1.10206       -0.50392
H         -2.66858       -0.20046       -0.29320
H         -3.05446        1.53466       -0.45345
H         -2.40047        0.90418        1.08904
C          0.17755        0.18761        0.10759
H         -0.65253        2.15861       -0.27267
H         -0.87187        1.01500       -1.61256
C         -0.03126       -1.30000       -0.21956
H         -0.99947       -1.67075        0.16634
H          0.77179       -1.91437        0.22672
H         -0.01700       -1.46457       -1.31791
C          1.56464        0.66236       -0.34414
H          0.14483        0.31146        1.21413
O          2.56903       -0.12094        0.31036
H          1.68715        1.74265       -0.09668
H          1.64642        0.56138       -1.45368
H          3.44526        0.17229        0.01059
