20
2-METHYL_CYCLOHEXANONE.gamout	Energy:    -348.9637780
C          0.97463        0.16702        0.29049
C          2.49927        0.05222        0.07352
C          2.96649        1.07846       -0.96460
C          2.93407       -1.37969       -0.32809
O          3.51618        2.12500       -0.63771
C          2.69928        0.72363       -2.42170
C          2.56254       -1.73574       -1.77470
C          3.15172       -0.71423       -2.75699
H          0.69408        1.19635        0.58151
H          0.66133       -0.52026        1.10008
H          0.39800       -0.10027       -0.61590
H          3.00171        0.33633        1.01934
H          2.49161       -2.10701        0.38315
H          4.03502       -1.46119       -0.20927
H          3.18935        1.47979       -3.06255
H          1.60186        0.80497       -2.58877
H          1.45860       -1.77919       -1.89189
H          2.93735       -2.74970       -2.01804
H          4.26015       -0.76031       -2.70930
H          2.86732       -0.96132       -3.79859
