27
2-METHYLANTHRACENE.gamout	Energy:    -578.4480232
C          4.05330        1.41371        0.82358
C          3.28357        1.27885        2.11613
C          3.80845        1.74027        3.31127
C          1.99720        0.64209        2.13439
C          3.11321        1.59504        4.54961
C          1.29035        0.48249        3.30853
C          1.81820        0.94671        4.55154
C          3.65003        2.06035        5.76289
C          1.12275        0.79337        5.76297
C          2.95583        1.90562        6.97471
C          1.66074        1.25573        6.97531
C          3.49017        2.37173        8.21484
C          0.96872        1.10441        8.22029
C          2.79421        2.20936        9.39398
C          1.51799        1.56687        9.39717
H          3.40149        1.26361       -0.05689
H          4.86530        0.65899        0.77277
H          4.52923        2.41002        0.73916
H          4.78644        2.23598        3.35645
H          1.57050        0.27475        1.18891
H          0.30676       -0.00324        3.33870
H          4.63297        2.55519        5.76693
H          0.13929        0.29946        5.76182
H          4.47063        2.85997        8.18253
H         -0.00771        0.60615        8.19079
H          3.22290        2.57634       10.33706
H          0.97126        1.43913       10.34138
