30
2-METHYL-1-NONENE.gamout	Energy:    -392.8195097
C          5.60502        4.77501        3.18928
C          4.47993        4.35858        4.14813
C          6.40769        5.98746        3.67741
C          3.67194        3.14651        3.66170
C          2.55556        2.73009        4.63249
C          1.74340        1.48685        4.22044
C          0.64592        1.72386        3.15263
C          1.95541        1.01820        1.04927
C          1.10508        2.05612        1.74429
C          0.72840        3.19715        1.12669
H          6.28933        3.91213        3.03701
H          5.16634        4.99413        2.19177
H          4.91405        4.13628        5.14857
H          3.79190        5.21990        4.30029
H          7.20961        6.26209        2.96445
H          6.88613        5.78320        4.65714
H          5.75433        6.87459        3.80564
H          3.23524        3.37146        2.66724
H          4.36093        2.28527        3.51308
H          3.01252        2.54020        5.62792
H          1.85931        3.58571        4.77868
H          2.43295        0.68204        3.88643
H          1.23395        1.08495        5.12046
H          0.03162        0.79654        3.09560
H         -0.03245        2.52481        3.51260
H          1.44506        0.03146        1.04454
H          2.92166        0.86713        1.57435
H          2.17640        1.30190        0.00378
H          0.09912        3.94319        1.63484
H          1.03609        3.42216        0.09449
