14
2-METHYLPYRIDINE.gamout	Energy:    -287.4077700
C          3.34407       -4.04580        0.01122
C          3.29848       -2.53900       -0.05468
C          4.46922       -1.75754       -0.15409
N          2.07264       -1.97320       -0.01343
C          4.36088       -0.36157       -0.21183
C          3.08628        0.21993       -0.16882
C          1.97657       -0.63671       -0.06913
H          4.37910       -4.43315       -0.02570
H          2.86275       -4.40130        0.94418
H          2.76911       -4.48167       -0.83009
H          5.45508       -2.24319       -0.18579
H          5.26174        0.26439       -0.28961
H          2.95117        1.31040       -0.21107
H          0.95605       -0.21886       -0.03233
