21
2-METHYL-1-HEXENE.gamout	Energy:    -274.9662576
C          4.25904        2.47761        2.41580
C          5.37959        1.52643        2.79102
C          3.01125        1.78888        1.82125
C          6.08408        0.82558        1.65134
C          5.73228        1.32221        4.07824
C          1.88834        2.77867        1.47397
C          0.63980        2.10358        0.89102
H          4.64149        3.21626        1.67480
H          3.95608        3.05785        3.31193
H          2.63477        1.03741        2.54839
H          3.28957        1.22339        0.90642
H          6.91098        0.18706        2.01402
H          5.38624        0.18364        1.07338
H          6.50157        1.56264        0.93244
H          6.54299        0.63023        4.35180
H          5.22108        1.84195        4.90289
H          2.27690        3.52895        0.75158
H          1.61062        3.34838        2.38704
H          0.88008        1.55614       -0.04305
H          0.20954        1.37231        1.60510
H         -0.14840        2.84464        0.65322
