19
2-NAPHTHOL.gamout	Energy:    -460.8059171
C          5.88166        0.64205        3.28362
O          7.13615        0.73251        3.83472
C          4.72641        0.49839        4.04383
C          5.80924        0.70303        1.86181
C          3.44865        0.40941        3.41924
C          4.57812        0.61856        1.23506
C          3.36888        0.47074        1.97919
C          2.24159        0.26147        4.16850
C          2.09231        0.38209        1.35394
C          1.01487        0.17822        3.52734
C          0.93806        0.23889        2.11008
H          7.06923        0.68016        4.80545
H          4.78718        0.45191        5.14223
H          6.74024        0.81711        1.28777
H          4.52155        0.66548        0.13752
H          2.30135        0.21482        5.26562
H          2.03563        0.42908        0.25659
H          0.09264        0.06436        4.11672
H         -0.04042        0.17200        1.61455
