20
2-NAPHTHYLAMINE.gamout	Energy:    -440.9553222
N          8.05574        2.52216       -0.10562
C          6.90863        1.81228        0.24938
C          6.84096        1.18074        1.53394
C          5.79550        1.74868       -0.59269
C          5.69528        0.51691        1.93535
C          4.54505        0.44099        1.09424
C          3.35353       -0.23374        1.48479
C          4.60479        1.07683       -0.19998
C          2.25562       -0.28471        0.63859
C          2.30940        0.33952       -0.63648
C          3.45503        1.00393       -1.04673
H          8.17661        2.76206       -1.08886
H          8.92716        2.28099        0.36466
H          7.71420        1.23314        2.20423
H          5.83160        2.23060       -1.58125
H          5.65597        0.03603        2.92507
H          3.31820       -0.71462        2.47350
H          1.34226       -0.80789        0.95195
H          1.43266        0.29373       -1.30012
H          3.49736        1.48756       -2.03353
