19
2-NAPHTHALENOL.gamout	Energy:    -460.8051983
C          5.94448        0.80373        3.04097
O          7.18173        0.94836        3.62082
C          4.84450        0.62657        3.87288
C          5.77854        0.83174        1.62523
C          3.53860        0.46975        3.32772
C          4.51556        0.68088        1.07307
C          3.36366        0.49641        1.89368
C          2.38461        0.28486        4.15174
C          2.05480        0.33831        1.34993
C          1.12673        0.13404        3.58909
C          0.95607        0.16034        2.17793
H          7.85983        1.06383        2.93121
H          4.99452        0.60795        4.96073
H          6.65881        0.97304        0.97394
H          4.39154        0.70244       -0.01954
H          2.51053        0.26362        5.24376
H          1.92658        0.35938        0.25756
H          0.25020       -0.00746        4.23820
H         -0.04928        0.03924        1.74794
