13
2-NITROPROPANE.gamout	Energy:    -323.4478242
N         -0.75173        0.00014        0.00890
O         -1.63364        0.01051       -0.85290
O         -0.94527       -0.01230        1.22616
C          0.70514        0.00353       -0.47162
C          1.38444        1.27915        0.02571
C          1.38376       -1.28058        0.00402
H          0.60550        0.01301       -1.57186
H          1.42734        1.29584        1.13081
H          2.41868        1.31092       -0.36735
H          0.85284        2.18191       -0.32807
H          1.42699       -1.31571        1.10865
H          0.85142       -2.17690       -0.36466
H          2.41785       -1.30652       -0.38981
