25
2-NONYNE.gamout	Energy:    -352.2892518
C          4.42705        1.64358        2.10234
C          5.06865        2.96299        1.65046
C          6.44042        3.24096        2.31336
C          3.10468        1.29035        1.39934
C          7.47861        2.26036        1.97852
C          1.93321        2.23830        1.70414
C          8.34139        1.43865        1.68864
C          0.60954        1.79437        1.06771
C          9.40172        0.48251        1.36921
H          4.25911        1.67960        3.20209
H          5.15700        0.82440        1.93508
H          4.40240        3.81912        1.88268
H          5.19955        2.95375        0.54760
H          6.79056        4.25409        2.01968
H          6.31442        3.27791        3.41880
H          3.26757        1.24633        0.29926
H          2.81209        0.26116        1.69987
H          1.80932        2.30433        2.80718
H          2.17873        3.26712        1.36613
H         -0.21525        2.49018        1.31581
H          0.68407        1.74579       -0.03807
H          0.31811        0.78575        1.42442
H         10.40084        0.96115        1.42836
H          9.39954       -0.37519        2.07291
H          9.28717        0.07458        0.34374
