25
2-OCTANONE.gamout	Energy:    -389.4506040
C          2.06014        2.24370        2.86725
C          2.63474        1.66134        4.15991
C          3.26638        2.71352        5.08335
C          1.51552        1.20191        1.89303
C          3.83207        2.12305        6.38349
C          0.84370        1.73230        0.63558
O          1.61957        0.00062        2.10767
C          4.53175        3.15069        7.28484
C          5.08155        2.54749        8.58265
H          1.25179        2.98100        3.07423
H          2.83062        2.83046        2.31502
H          1.83011        1.11655        4.69688
H          3.38615        0.88795        3.89711
H          2.51284        3.49456        5.33200
H          4.08043        3.23960        4.53654
H          4.54772        1.30875        6.13172
H          3.01010        1.63491        6.95257
H          1.51800        2.43135        0.09968
H         -0.06013        2.31727        0.90550
H          0.55821        0.89824       -0.02837
H          3.82000        3.96977        7.52894
H          5.35936        3.62974        6.71768
H          5.81746        1.74404        8.37273
H          4.26988        2.10152        9.19322
H          5.58845        3.31067        9.20505
