22
2-OCTYNE.gamout	Energy:    -313.0051616
C          5.52253        0.79469        1.30181
C          4.52040        1.96854        1.36987
C          3.07491        1.51366        1.14211
C          6.91488        1.19236        1.51256
C          2.04770        2.65248        1.20002
C          8.07528        1.54271        1.69148
C          0.60938        2.17604        0.96826
C          9.46885        1.93314        1.90192
H          5.42903        0.29327        0.31257
H          5.23799        0.02743        2.05607
H          4.61287        2.46564        2.35827
H          4.80279        2.72920        0.61218
H          3.00350        1.00815        0.15341
H          2.81035        0.74288        1.89957
H          2.11872        3.15858        2.18695
H          2.31329        3.42204        0.44347
H         -0.11098        3.01523        1.01286
H          0.30832        1.43203        1.73359
H          0.50346        1.69423       -0.02513
H          9.57957        2.57622        2.79905
H          9.86746        2.49747        1.03379
H         10.11343        1.04195        2.04641
