18
2-PENTANETHIOL.gamout	Energy:    -595.7376168
C         34.95083       30.03649       -0.07688
C         33.62449       29.25313       -0.06414
C         34.78260       31.56407       -0.00133
C         32.74973       29.47784       -1.29785
S         34.09471       27.45857        0.12612
C         36.12080       32.30885        0.09635
H         35.56070       29.70109        0.78834
H         35.52773       29.76416       -0.98747
H         33.06393       29.53337        0.85166
H         34.22076       31.92730       -0.88706
H         34.15710       31.81449        0.88290
H         31.82181       28.87772       -1.24118
H         32.45061       30.54305       -1.37831
H         33.28817       29.19114       -2.22227
H         32.83210       26.94083        0.10570
H         35.96619       33.40334        0.15260
H         36.68433       31.99940        0.99974
H         36.76503       32.10576       -0.78332
