16
2-PENTANONE.gamout	Energy:    -271.5950423
O          1.22888       -1.26797        0.01159
C         -1.46668       -0.40313        0.00483
C         -0.30175        0.59102        0.00080
C         -2.84021        0.27881        0.00084
C          1.08334       -0.05191        0.00455
C          2.27311        0.89478       -0.00103
H         -0.35867        1.26799       -0.88201
H         -0.35941        1.27651        0.87697
H         -1.36561       -1.07228       -0.87322
H         -1.36680       -1.06465        0.88879
H         -2.97359        0.91732       -0.89638
H         -2.97514        0.92495        0.89234
H         -3.65662       -0.46905        0.00331
H          2.23575        1.56379        0.88334
H          2.23588        1.55275       -0.89364
H          3.21613        0.32209        0.00261
