13
2-PENTYNE.gamout	Energy:    -195.1489613
C          4.51485        0.76825        0.95566
C          3.05507        0.85949        1.06590
C          1.83668        0.95493        1.16327
C          5.24877        2.08804        1.27386
C          0.38207        1.05780        1.27719
H          4.88207       -0.03176        1.63497
H          4.78237        0.43675       -0.07132
H          5.03182        2.42170        2.30659
H          6.34322        1.95340        1.17380
H          4.93182        2.89230        0.58267
H         -0.11345        0.91564        0.29473
H          0.07827        2.05283        1.66308
H         -0.02463        0.29301        1.97060
