22
2-PHENYL-1-BUTENE.gamout	Energy:    -388.0023193
C          1.21743        4.02254        1.85453
C          1.84918        2.67488        2.14989
C          1.11757        1.64815        2.63991
C          3.30063        2.49810        1.84110
C          1.11340        4.29297        0.34113
C          3.74654        1.42022        1.04487
C          4.27225        3.38554        2.35690
C          5.11156        1.22597        0.78524
C          5.63859        3.18459        2.11072
C          6.06591        2.10330        1.32384
H          1.81534        4.83205        2.32581
H          0.20971        4.06348        2.31641
H          1.56944        0.67017        2.85687
H          0.04675        1.76688        2.86463
H          0.63885        5.27193        0.14249
H          0.51561        3.50308       -0.15347
H          2.11638        4.29452       -0.12874
H          2.99927        0.73969        0.61417
H          3.95583        4.23071        2.98413
H          5.43314        0.38174        0.15863
H          6.37427        3.87601        2.54456
H          7.13574        1.94868        1.12932
