22
2-PHENYL_PROPANOL.gamout	Energy:    -425.1119213
C          1.34336        1.84150        4.58359
C          1.66541        2.93207        3.54742
C          0.35965        3.47219        2.92547
C          2.65918        2.48104        2.48242
O          2.52065        1.55769        5.34102
C          3.91590        3.10399        2.36356
C          2.34092        1.45607        1.56876
C          4.82580        2.72198        1.36429
C          3.24585        1.06674        0.56907
C          4.49323        1.70164        0.46181
H          0.96625        0.92736        4.06739
H          0.52714        2.21271        5.24568
H          2.14251        3.75854        4.11460
H         -0.18163        2.68426        2.36468
H          0.57596        4.29483        2.21895
H         -0.32216        3.85869        3.70863
H          2.31043        0.90295        6.02881
H          4.18910        3.89950        3.07129
H          1.36905        0.94594        1.63642
H          5.80245        3.22277        1.29122
H          2.97685        0.26119       -0.12988
H          5.20266        1.39647       -0.31798
