27
2-PROPYLNAPHTHALENE.gamout	Energy:    -503.4848718
C          5.77227        1.44597       -0.73328
C          6.94123        1.49370        0.01147
C          4.54972        0.99122       -0.15051
C          6.93918        1.09154        1.37471
C          5.76776        0.65045        1.97176
C          4.54999        0.58685        1.23465
C          3.32304        0.14245        1.81087
C          3.33057        0.92004       -0.88583
C          2.14317        0.46928       -0.31469
C          2.15769        0.08576        1.06122
C          0.88358        0.35429       -1.15085
C         -0.53886       -1.15393       -2.67090
C          0.61982       -1.07805       -1.66847
H          5.77444        1.76329       -1.78627
H          7.87531        1.84386       -0.45119
H          7.87106        1.13331        1.95802
H          5.76814        0.34251        3.02721
H          3.31473       -0.15127        2.87170
H          3.33497        1.23427       -1.94079
H          1.22482       -0.25286        1.53565
H         -0.00246        0.70289       -0.57661
H          0.98127        1.03503       -2.02188
H         -0.68491       -2.18966       -3.03266
H         -1.49769       -0.81712       -2.22535
H         -0.34041       -0.51294       -3.55355
H          1.55195       -1.45257       -2.14128
H          0.42471       -1.75352       -0.80920
