12
2-PROPANETHIOL.gamout	Energy:    -517.1684736
C          3.44909        1.16955        1.73806
C          2.15346        1.60748        1.05026
C          0.89770        1.10021        1.76388
S          2.10090        3.44851        0.78814
H          4.33833        1.52582        1.18663
H          3.50195        1.56958        2.77110
H          3.49564        0.06226        1.80334
H          2.15287        1.23036        0.00601
H          0.84452        1.49661        2.79829
H         -0.02003        1.40862        1.23085
H          0.91131       -0.00808        1.82853
H          2.10812        3.77859        2.11280
