13
2-PYRROLIDONE.gamout	Energy:    -286.4479091
N         -0.03187        1.08630        0.04778
C         -0.83362       -0.03346       -0.00059
C          0.10978       -1.23967       -0.14024
C          1.51004       -0.68139        0.17895
C          1.39511        0.83652       -0.11767
O         -2.06031       -0.04214        0.04039
H         -0.44583        2.01738        0.03121
H         -0.21618       -2.06096        0.52252
H          0.02775       -1.60863       -1.18445
H          1.74525       -0.83307        1.25073
H          2.31796       -1.15270       -0.40964
H          1.73146        1.08140       -1.15107
H          1.99625        1.44828        0.58359
