25
2-TERT-BUTYLPHENOL.gamout	Energy:    -464.4056906
O         -0.00109        2.20418        0.00934
C         -1.61873       -0.24162       -0.02006
C         -0.07002       -0.21201       -0.00146
C         -2.16863       -1.68508       -0.03149
C         -2.15512        0.46252       -1.29207
C         -2.18573        0.45309        1.24358
C          0.67554        1.00184        0.01229
C          0.69561       -1.39831        0.00277
C          2.08541        1.00011        0.02864
C          2.10158       -1.41510        0.01892
C          2.80259       -0.20350        0.03188
H         -1.86296       -2.25334        0.86807
H         -3.27687       -1.65793       -0.04458
H         -1.84240       -2.24815       -0.92714
H         -1.77681       -0.03591       -2.20561
H         -3.26267        0.41243       -1.30870
H         -1.86088        1.52574       -1.32902
H         -3.29338        0.40278        1.23315
H         -1.82953       -0.05218        2.16213
H         -1.89276        1.51603        1.29510
H          0.17057       -2.35948       -0.00707
H          2.62636        1.96146        0.03883
H          2.63518       -2.37510        0.02120
H          3.90158       -0.18741        0.04461
H          0.65162        2.92664        0.02002
