18
2-THIAHEXANE.gamout	Energy:    -595.7327729
S         -2.30859       -1.23506       -0.58626
C          0.36613       -0.49772       -0.60357
C          1.60590        0.08506        0.09645
C         -0.86727       -0.51784        0.30556
C          2.85285        0.10951       -0.79560
C         -3.58730       -1.12560        0.71499
H          0.58796       -1.53106       -0.94664
H          0.14376        0.09340       -1.51741
H          1.37681        1.11496        0.44584
H          1.81421       -0.50885        1.01235
H         -0.67185       -1.12780        1.21237
H         -1.12455        0.51094        0.63455
H          3.72258        0.53140       -0.25593
H          2.68934        0.72562       -1.70305
H          3.12865       -0.91106       -1.13057
H         -3.77222       -0.07530        1.01638
H         -3.31818       -1.73025        1.60403
H         -4.51779       -1.53538        0.27895
