29
3,3,4-TRIMETHYLHEXANE.gamout	Energy:    -354.7575064
C          4.23205        1.87860        1.86582
C          2.88538        2.65949        2.09865
C          1.98121        1.87881        3.08851
C          3.21195        4.05884        2.66189
C          2.16544        2.85472        0.74730
C          4.99310        1.56287        3.17453
C          4.07792        0.59250        1.03361
C          0.60212        2.48636        3.38353
C          6.50456        1.37145        2.99010
H          4.87308        2.57090        1.27260
H          1.83785        0.84897        2.70140
H          2.52263        1.76930        4.04924
H          3.67361        4.01142        3.66614
H          2.29719        4.67448        2.74586
H          3.91373        4.59242        1.99112
H          1.32232        3.56739        0.83585
H          2.86406        3.26160       -0.01079
H          1.75345        1.90597        0.35487
H          4.56515        0.64544        3.63178
H          4.82997        2.37168        3.91202
H          3.38608       -0.12529        1.51837
H          5.05480        0.08230        0.92834
H          3.70485        0.78867        0.01176
H          0.06515        1.85826        4.11937
H         -0.03427        2.54986        2.47975
H          0.68192        3.50259        3.81609
H          6.99498        1.17464        3.96245
H          6.97127        2.27755        2.55355
H          6.74233        0.52053        2.32103
