32
3,3,5-TRIMETHYLHEPTANE.gamout	Energy:    -394.0421749
C          1.56674        1.57816        0.22250
C          1.22008        0.10455       -0.06977
C          2.29357       -0.81090        0.59418
C          3.74237       -0.65183        0.11947
C         -0.14208       -0.30678        0.57628
C         -1.49215        0.07149       -0.07809
C         -2.64054       -0.72803        0.59009
C         -3.93648       -0.76701       -0.22821
C         -1.80333        1.57744       -0.05707
C          1.20498       -0.13408       -1.59114
H          2.56898        1.84221       -0.17007
H          0.84182        2.27164       -0.23888
H          1.57235        1.77395        1.31310
H          2.24983       -0.65107        1.69282
H          1.98191       -1.86386        0.43133
H          4.40507       -1.35232        0.66427
H          3.84362       -0.87679       -0.95948
H          4.13703        0.36864        0.29169
H         -0.13411       -1.41479        0.64391
H         -0.14198        0.05112        1.62949
H         -1.45581       -0.26010       -1.13988
H         -2.29358       -1.76839        0.76088
H         -2.84715       -0.30732        1.60013
H         -4.69928       -1.40644        0.25749
H         -4.38552        0.23804       -0.35525
H         -3.74632       -1.17770       -1.24061
H         -1.12614        2.15692       -0.71044
H         -2.83669        1.77907       -0.40114
H         -1.70925        1.98084        0.97191
H          2.18193        0.12096       -2.04575
H          0.99191       -1.19535       -1.83041
H          0.44373        0.48915       -2.09766
