19
3,3-DIMETHYLCYCLOPENTENE.gamout	Energy:    -273.7617816
C          1.01765       -0.68993       -0.06723
C          1.01176        0.65600       -0.02407
C         -0.38574        1.23403        0.15571
C         -1.28340       -0.01393       -0.12888
C         -0.37782       -1.26056        0.06172
C         -0.67036        2.38709       -0.82322
C         -0.56156        1.72941        1.60830
H          1.91905       -1.31441       -0.14566
H          1.90659        1.29456       -0.06065
H         -1.63454        0.02494       -1.17943
H         -2.18463       -0.03213        0.51425
H         -0.58972       -2.05513       -0.68255
H         -0.51661       -1.73320        1.06093
H         -0.51445        2.06689       -1.87158
H         -0.00459        3.25075       -0.62569
H         -1.71649        2.74065       -0.72340
H         -0.41064        0.90499        2.33194
H         -1.57905        2.14286        1.75834
H          0.16844        2.52723        1.84876
