16
3,3-DIMETHYL-1-BUTYNE.gamout	Energy:    -234.4247525
C          3.28770        1.92999        1.22862
C          1.93868        1.98520        1.82570
C          1.39865        3.43321        1.72930
C          2.01535        1.55504        3.31114
C          0.99971        1.02556        1.05474
C          4.40453        1.88350        0.73010
H          1.33702        3.76089        0.67474
H          0.38437        3.49008        2.17308
H          2.05717        4.13699        2.27161
H          1.00410        1.59341        3.76280
H          2.40257        0.52347        3.40491
H          2.68129        2.22686        3.88400
H          0.93361        1.31057       -0.01177
H          1.36596       -0.01634        1.11179
H         -0.01824        1.06390        1.49133
H          5.39021        1.84251        0.29003
