19
3,3-DIMETHYL-1-PENTYNE.gamout	Energy:    -273.7090374
C         -0.11021        2.94853       -0.05640
C          0.77366        4.19825       -0.00998
C          2.31216        3.94564        0.01318
C          2.71551        3.20038       -1.19493
C          3.03748        5.31481        0.02403
C          2.72189        3.14482        1.27263
C          3.05572        2.58744       -2.19858
H         -1.17745        3.23212       -0.13653
H          0.13988        2.31679       -0.93120
H         -0.00276        2.32714        0.85408
H          0.52770        4.80204        0.88927
H          0.55064        4.83825       -0.88795
H          4.13490        5.18027        0.02874
H          2.74918        5.88407        0.93010
H          2.76459        5.91005       -0.86684
H          2.39547        3.68435        2.18428
H          2.27001        2.13712        1.28098
H          3.82019        3.02282        1.31491
H          3.35966        2.04784       -3.08373
