21
3,3-DIMETHYL-2-BUTANOL.gamout	Energy:    -312.0814174
C         -1.38919        1.27824       -0.48593
C         -0.66873        0.01897        0.03596
C          0.80973        0.01127       -0.47749
C          1.64977        1.23086       -0.08424
O          1.49551       -1.20063       -0.11548
C         -0.71981       -0.00838        1.57379
C         -1.37790       -1.22988       -0.52067
H         -1.27391        1.38043       -1.58384
H         -2.47402        1.21720       -0.26995
H         -1.01151        2.20508       -0.01368
H          0.75890       -0.03634       -1.58614
H          1.74315        1.32136        1.01736
H          2.66708        1.13140       -0.50722
H          1.21305        2.17386       -0.46366
H          1.76261       -1.13548        0.81913
H         -1.76881       -0.04237        1.92780
H         -0.21354       -0.90697        1.97894
H         -0.24983        0.88815        2.02139
H         -1.39571       -1.21427       -1.62877
H         -0.86153       -2.15416       -0.20419
H         -2.42638       -1.27281       -0.16587
