32
3,3-DIETHYLHEXANE.gamout	Energy:    -394.0388689
C         -0.15279       44.90847        0.34995
C          1.36432       44.85171        0.13796
C          2.00601       46.24554        0.13732
C          3.55783       46.32173        0.02594
C          3.88553       47.82380       -0.21254
C          4.15669       45.82606        1.38090
C          4.06767       45.44127       -1.14324
C          5.35650       48.24554       -0.33418
C          5.60735       45.31873        1.40860
C          3.49624       45.76126       -2.53137
H         -0.59880       43.89680        0.32165
H         -0.40473       45.36363        1.32863
H         -0.64282       45.51613       -0.43745
H          1.57911       44.34401       -0.82410
H          1.82318       44.21600        0.92353
H          1.70866       46.78267        1.06422
H          1.56509       46.83323       -0.69544
H          3.35077       48.15400       -1.12752
H          3.41685       48.39709        0.61568
H          3.51388       45.00881        1.76591
H          4.04815       46.65126        2.11709
H          5.17141       45.51617       -1.19016
H          3.85962       44.37897       -0.89939
H          5.42070       49.31885       -0.59646
H          5.91352       48.10739        0.61121
H          5.89117       47.68458       -1.12587
H          5.89991       45.06553        2.44652
H          6.32820       46.06990        1.03826
H          5.74137       44.40223        0.80237
H          3.90335       45.06546       -3.28988
H          2.39264       45.67786       -2.56191
H          3.75424       46.78821       -2.85203
