32
3,3-DIETHYL-2-METHYLPENTANE.gamout	Energy:    -394.0301446
C         12.73734       57.65638        0.35335
C         14.22218       57.32266        0.15650
C         15.26867       58.47754        0.03511
C         15.21369       59.35968        1.35214
C         16.64258       57.73788       -0.08340
C         14.99679       59.33916       -1.22718
C         16.53511       60.01308        1.80495
C         14.14502       60.47268        1.34209
C         17.83718       58.48682       -0.69438
C         14.93664       58.59025       -2.56826
H         12.13588       56.72720        0.30948
H         12.53550       58.12398        1.33506
H         12.34580       58.33310       -0.43201
H         14.32139       56.68623       -0.74598
H         14.55265       56.67936        1.00024
H         14.93820       58.64338        2.15878
H         16.48691       56.81443       -0.67955
H         16.91632       57.37125        0.92836
H         14.03517       59.87146       -1.09844
H         15.76572       60.13663       -1.28257
H         16.37800       60.52414        2.77509
H         17.34964       59.28286        1.95008
H         16.88292       60.78651        1.09051
H         14.00102       60.86378        2.36806
H         13.16145       60.13869        0.97373
H         14.46440       61.32745        0.71231
H         18.74387       57.85285       -0.64386
H         18.06444       59.43253       -0.17334
H         17.66974       58.73153       -1.76019
H         14.80401       59.30527       -3.40315
H         15.85050       58.00098       -2.78061
H         14.08137       57.88872       -2.60338
