24
3,3-DIMETHYL-1-HEXENE.gamout	Energy:    -314.2451685
C          5.84281        4.20281        1.68947
C          4.34341        4.22937        2.01688
C          3.64418        2.90338        1.67760
C          2.11309        2.81548        1.96405
C          1.68631        1.39578        1.63007
C          1.83067        3.04407        3.46837
C          1.34120        3.85389        1.13560
C          0.78954        0.99212        0.71219
H          6.02235        4.00936        0.61205
H          6.32202        5.16815        1.94018
H          6.36450        3.40804        2.26060
H          3.86411        5.06042        1.45931
H          4.21611        4.46306        3.09457
H          3.80403        2.67779        0.60140
H          4.14788        2.08440        2.23632
H          2.19677        0.62194        2.23219
H          2.11336        4.06815        3.77688
H          0.75411        2.90745        3.68614
H          2.39761        2.32788        4.09537
H          1.62688        4.88305        1.42285
H          1.53892        3.73577        0.05236
H          0.25018        3.75506        1.29665
H          0.57232       -0.07674        0.56888
H          0.23825        1.69586        0.07117
