32
3,3-DIMETHYL-4-ETHYLHEXANE.gamout	Energy:    -394.0387152
C          0.11524       36.04647       -1.42825
C          1.10843       35.56019       -0.36505
C          2.08861       36.64263        0.16789
C          1.66509       37.26830        1.55280
C          3.53518       36.08894        0.16079
C          0.17873       37.72200        1.47428
C          1.84850       36.25175        2.69377
C          2.54411       38.50390        1.83247
C         -0.39629       38.47740        2.68329
C          4.15001       35.95580       -1.24062
H         -0.55643       35.22726       -1.74906
H         -0.52024       36.87074       -1.05400
H          0.64807       36.41799       -2.32681
H          1.69429       34.72262       -0.79530
H          0.55135       35.10694        0.48107
H          2.06959       37.49222       -0.55148
H          4.20233       36.73232        0.76647
H          3.54261       35.09517        0.65749
H          0.06677       38.35932        0.57279
H         -0.45906       36.83221        1.30307
H          1.58637       36.70103        3.66976
H          2.89724       35.90980        2.76401
H          1.21049       35.35601        2.56212
H          3.61580       38.24349        1.90949
H          2.43372       39.25504        1.02549
H          2.26501       38.98996        2.78657
H         -1.47153       38.68644        2.52083
H         -0.31728       37.88972        3.61854
H          0.10159       39.45085        2.85125
H          5.17386       35.54003       -1.17786
H          3.56359       35.28768       -1.90320
H          4.21790       36.94179       -1.74344
