18
3,3-DIMETHYL-1-BUTENE.gamout	Energy:    -235.6771090
C          3.28257        2.62436        2.30757
C          1.89076        2.08145        2.03352
C          1.26736        2.91171        0.88627
C          2.03160        0.61087        1.57460
C          0.97904        2.14931        3.26804
C          3.76465        3.12589        3.45855
H          3.95597        2.58704        1.43178
H          0.27096        2.51007        0.61199
H          1.14387        3.97020        1.18566
H          1.90353        2.88567       -0.02041
H          1.04122        0.19156        1.30655
H          2.68647        0.53183        0.68488
H          2.46835       -0.01410        2.37684
H         -0.02464        1.74600        3.02974
H          1.38922        1.55476        4.10720
H          0.84879        3.19199        3.61689
H          4.80053        3.48936        3.52671
H          3.15579        3.19566        4.37203
