21
3,3-DIMETHYL-1-PENTENE.gamout	Energy:    -274.9598105
C          2.78977        0.81506        2.08755
C          2.27667        1.90625        3.07779
C          2.04282        1.20904        4.40710
C          3.36117        2.98574        3.30114
C          0.99692        2.56863        2.54241
C          3.16873        1.28753        0.67690
C          0.89422        1.09057        5.09670
H          2.00644        0.03292        2.01237
H          3.67022        0.31983        2.54931
H          2.95237        0.74677        4.83290
H          4.30540        2.53522        3.66664
H          3.02550        3.72607        4.05240
H          3.58293        3.53026        2.36333
H          0.59807        3.30302        3.26822
H          0.20654        1.81894        2.34328
H          1.19743        3.10999        1.59887
H          3.98857        2.03277        0.68745
H          3.51682        0.42889        0.07095
H          2.30750        1.73728        0.14617
H          0.86675        0.54989        6.05415
H         -0.05635        1.51860        4.74539
