22
3,3-DIMETHYLCYCLOHEXENE.gamout	Energy:    -313.0538313
C         -0.32551       -1.41685        0.07414
C         -1.26970       -0.45607        0.13207
C         -0.99102        1.03694        0.12919
C          0.52131        1.28906        0.35657
C          1.41853        0.33100       -0.43973
C          1.15071       -1.12681       -0.03574
C         -1.79242        1.69695        1.27098
C         -1.45564        1.64391       -1.21665
H         -0.63417       -2.47456        0.10801
H         -2.33131       -0.74837        0.19240
H          0.75911        2.34410        0.10982
H          0.73924        1.16158        1.43868
H          2.48716        0.58133       -0.28128
H          1.22664        0.45236       -1.52688
H          1.64538       -1.35109        0.93862
H          1.61489       -1.82391       -0.76494
H         -1.51491        1.26157        2.25038
H         -2.88270        1.55619        1.12985
H         -1.59247        2.78633        1.30707
H         -0.87059        1.24347       -2.06553
H         -1.34345        2.74761       -1.20564
H         -2.52245        1.41290       -1.40812
