29
3,4-DIMETHYLHEPTANE.gamout	Energy:    -354.7609094
C          1.54533        2.16807        2.65716
C          2.01950        2.11532        4.13941
C          3.53905        2.34449        4.29023
C          1.56679        0.82568        4.84346
C          1.54435        3.61808        2.12963
C          2.33699        1.21642        1.74505
C          3.98307        2.80615        5.68631
C          0.98031        3.79017        0.71463
C          5.48252        3.11949        5.76537
H          0.48489        1.82647        2.65562
H          1.50975        2.96215        4.65236
H          4.08105        1.41192        4.02059
H          3.87404        3.10822        3.55805
H          1.82891        0.83701        5.91880
H          2.04223       -0.07193        4.39853
H          0.46899        0.69735        4.77076
H          0.94641        4.23598        2.83224
H          2.57633        4.02703        2.16849
H          2.39357        0.19575        2.17007
H          3.37518        1.57514        1.59420
H          1.86780        1.12568        0.74796
H          3.72620        2.03916        6.44689
H          3.39981        3.71215        5.95763
H          1.62096        3.31136       -0.05153
H         -0.03117        3.34220        0.63520
H          0.89559        4.86140        0.44631
H          5.77023        3.46778        6.77558
H          6.09790        2.22728        5.52968
H          5.75800        3.91413        5.04208
