17
3,4-DIMETHYLPYRIDINE.gamout	Energy:    -326.6959288
C          3.06157        0.18615       -0.19669
C          4.34530       -0.38651       -0.24791
C          1.93704       -0.63428       -0.01776
N          2.01973       -1.96808        0.11083
C          3.24516       -2.51573        0.06197
C          4.44357       -1.79503       -0.11363
C          5.77481       -2.50564       -0.15562
C          5.57370        0.46649       -0.43845
H          2.93771        1.27540       -0.29636
H          0.92448       -0.19551        0.02399
H          3.28972       -3.61397        0.16933
H          6.45223       -2.14770        0.64740
H          5.64983       -3.59810       -0.03173
H          6.29807       -2.33048       -1.11853
H          5.31379        1.53793       -0.52192
H          6.27891        0.34839        0.41001
H          6.12611        0.17424       -1.35534
