21
3,4-DIMETHYL-CIS-2-PENTENE.gamout	Energy:    -274.9641452
C          3.62129        2.24707        1.87602
C          2.13601        1.88764        1.74319
C          1.15708        2.70282        1.28126
C          1.79779        0.48193        2.18372
C          3.88561        3.36485        2.90557
C          4.30325        2.52586        0.52063
C          1.24039        4.12377        0.79326
H          4.11457        1.33769        2.28082
H          0.13953        2.27304        1.25314
H          2.07852        0.31905        3.24716
H          0.72039        0.25601        2.07296
H          2.37102       -0.26605        1.59371
H          4.97476        3.49881        3.06536
H          3.47130        4.33777        2.57970
H          3.42591        3.11645        3.88157
H          3.92364        3.44895        0.04205
H          5.39768        2.64332        0.65482
H          4.13395        1.69046       -0.18563
H          2.26008        4.54291        0.82868
H          0.87842        4.20318       -0.25430
H          0.58344        4.78604        1.39725
