15
3,4-DIMETHYLTHIOPHENE.gamout	Energy:    -631.4043429
C         -4.95891       -0.75673       -1.21578
C         -3.68899       -0.08902       -1.02981
C         -5.93935       -0.24641       -0.38504
C         -5.17351       -1.87468       -2.20170
C         -3.75944        0.89974       -0.06582
C         -2.44592       -0.44064       -1.80361
S         -5.34794        1.03746        0.62619
H         -6.98599       -0.55920       -0.31292
H         -4.51222       -2.73910       -1.98285
H         -6.21864       -2.23583       -2.18342
H         -4.94552       -1.54859       -3.23810
H         -2.95530        1.55927        0.27668
H         -1.58902        0.19084       -1.50378
H         -2.15793       -1.50104       -1.64503
H         -2.59921       -0.30834       -2.89518
