24
3,4-DIMETHYL-TRANS-2-HEXENE.gamout	Energy:    -314.2516265
C          1.45032        4.37775        0.69173
C          0.97647        3.03417        1.25680
C          1.72841        3.31541        3.67958
C          1.85072        2.46034        2.41011
C          3.28304        2.17759        1.95534
C          3.41261        1.03750        0.97223
C          4.34022        2.89512        2.40680
C          5.79346        2.73916        2.04882
H          2.46949        4.29908        0.26547
H          0.77159        4.72435       -0.11067
H          1.47815        5.16479        1.47047
H         -0.06357        3.13832        1.63225
H          0.92607        2.29076        0.43608
H          0.66568        3.39994        3.97903
H          2.28570        2.86355        4.52206
H          2.11158        4.34434        3.53629
H          1.40721        1.46676        2.64961
H          2.96293        0.11181        1.38964
H          2.86460        1.24814        0.02963
H          4.45984        0.81533        0.70154
H          4.13453        3.70020        3.12971
H          6.17324        3.64485        1.52808
H          6.41690        2.62293        2.96063
H          5.99141        1.87209        1.39308
