24
3,4-DIMETHYL-1-HEXENE.gamout	Energy:    -314.2433304
C          3.47875        3.72888        2.58677
C          2.78128        2.43266        2.05159
C          1.41655        2.20829        2.74081
C          2.65771        2.39278        0.51843
C          4.85871        3.93087        2.00590
C          2.63341        5.00496        2.38473
C          0.87895        0.77355        2.64536
C          6.01254        3.90930        2.69950
H          3.60377        3.57761        3.68111
H          3.44511        1.59388        2.35789
H          0.66871        2.91080        2.31562
H          1.51333        2.47886        3.81396
H          2.12454        1.48158        0.18641
H          3.64924        2.38800        0.02841
H          2.08940        3.26366        0.13458
H          4.90116        4.14797        0.92330
H          2.45320        5.20994        1.31097
H          3.15743        5.88316        2.80625
H          1.65141        4.92343        2.88660
H          1.57957        0.05394        3.11484
H         -0.09277        0.68356        3.16824
H          0.71638        0.44917        1.59824
H          6.03432        3.71572        3.78442
H          6.97931        4.08512        2.20608
