24
3,4-DIMETHYL-CIS-2-HEXENE.gamout	Energy:    -314.2491274
C          1.29986       -1.14214       -0.12769
C          2.55031       -0.30832       -0.06456
C          3.09387        0.51519       -0.99336
C          2.52593        0.81167       -2.38734
C          2.43964       -0.41850       -3.32289
C          3.78079       -1.12113       -3.55913
C          1.18611        1.57450       -2.32860
C          4.37154        1.25764       -0.67622
H          1.53737       -2.22277       -0.01997
H          0.72868       -1.01836       -1.06353
H          0.62094       -0.89251        0.71549
H          3.09821       -0.38837        0.89207
H          3.25326        1.50385       -2.86705
H          2.02745       -0.07533       -4.29704
H          1.70633       -1.14657       -2.92054
H          4.52129       -0.42618       -4.00500
H          3.66842       -1.97933       -4.25060
H          4.20410       -1.50571       -2.61015
H          0.37640        0.95169       -1.90352
H          0.87392        1.88877       -3.34514
H          1.27150        2.48307       -1.70158
H          4.74241        1.04258        0.34411
H          4.22320        2.35637       -0.76370
H          5.17262        0.99364       -1.39976
