19
3,4-DINITROTOLUENE.gamout	Energy:    -680.1413581
O          6.78646        3.86902       -1.72169
N          7.13898        3.06841       -0.85148
O          8.10336        3.19947       -0.09548
C          6.29069        1.86690       -0.65974
C          6.82709        0.60664       -0.32720
C          4.90152        2.02672       -0.73084
N          8.29006        0.33386       -0.34208
C          5.97669       -0.46870       -0.04811
C          4.05581        0.94408       -0.45160
O          8.73960       -0.33568        0.59020
O          8.92491        0.75004       -1.31125
C          4.57469       -0.32009       -0.10522
C          3.66350       -1.48802        0.18544
H          4.49891        3.01483       -0.98924
H          6.42722       -1.43815        0.20590
H          2.96666        1.08508       -0.49777
H          3.62508       -2.18609       -0.67678
H          4.01873       -2.06588        1.06026
H          2.63198       -1.14787        0.38754
