29
3,5-DIMETHYLHEPTANE.gamout	Energy:    -354.7541162
C          2.79080        3.96210        4.52775
C          3.73744        3.99425        3.29842
C          2.34937        2.64810        5.22558
C          3.17372        3.29872        2.03999
C          5.18152        3.55440        3.60173
C          1.48842        1.71535        4.34468
C          3.49189        1.88677        5.92172
C          3.79510        3.79054        0.72537
C          0.60424        0.75412        5.15078
H          3.25649        4.60297        5.30690
H          1.86177        4.49248        4.22835
H          3.79256        5.07941        3.04788
H          1.67450        3.00598        6.03751
H          3.31904        2.20124        2.12160
H          2.07719        3.45787        2.00388
H          5.26117        2.45536        3.70973
H          5.54985        4.01475        4.53896
H          5.87224        3.86097        2.79106
H          0.84692        2.33665        3.68848
H          2.14264        1.12785        3.66753
H          3.09770        1.13211        6.63023
H          4.13903        2.57559        6.49843
H          4.12934        1.35413        5.18955
H          3.63972        4.88106        0.59754
H          3.33991        3.28313       -0.14775
H          4.88549        3.59980        0.68607
H         -0.01511        0.11847        4.48800
H          1.20773        0.07849        5.78805
H         -0.08285        1.31740        5.81401
