19
3,5-XYLENOL.gamout	Energy:    -385.8445037
C          1.95643        1.82193        1.06027
C          0.65663        1.05343        0.95449
C          3.18891        1.13502        1.01794
C          1.96340        3.22182        1.17627
C          4.41592        1.81696        1.08297
C          3.18491        3.91859        1.24267
C          5.72823        1.06592        1.04273
C          4.40425        3.22263        1.19569
O          3.12087        5.28745        1.35633
H         -0.19576        1.62646        1.36563
H          0.42326        0.82110       -0.10554
H          0.72195        0.09070        1.49653
H          3.18892        0.03813        0.93206
H          1.02564        3.79393        1.21772
H          6.37605        1.43381        0.22137
H          6.29425        1.19448        1.98830
H          5.56064       -0.01536        0.89018
H          5.35559        3.77783        1.25097
H          4.02152        5.65573        1.39658
