24
3,5-DIMETHYL-1-HEXENE.gamout	Energy:    -314.2447751
C          0.52626       -0.10956       -0.52301
C          1.61343        0.80081        0.06905
C          1.23319        2.30022        0.02883
C          1.95092        0.36212        1.50349
C          1.47851        3.04735       -1.30647
C          0.55798        2.62103       -2.42293
C          1.34959        4.57390       -1.09380
C          0.94087        2.23192       -3.65294
H          0.84588       -1.17092       -0.51194
H         -0.40753       -0.03656        0.07323
H          0.28658        0.16272       -1.56624
H          2.53553        0.67615       -0.54347
H          0.16822        2.42188        0.33008
H          1.82441        2.82819        0.80542
H          2.78506        0.95761        1.92356
H          2.24516       -0.70533        1.53644
H          1.07655        0.48531        2.17674
H          2.52348        2.83570       -1.62521
H         -0.52242        2.68365       -2.19347
H          1.61663        5.12799       -2.01370
H          2.01746        4.90673       -0.27570
H          0.31152        4.85693       -0.82204
H          0.20941        1.97878       -4.43477
H          2.00650        2.15629       -3.92252
