14
3-AMINO-1-PROPANOL.gamout	Energy:    -249.5361182
N         -4.92024        0.42085        0.37117
C         -3.76221        1.26142        0.04300
H         -5.80014        0.91471        0.19080
H         -4.93415       -0.42528       -0.20970
C         -2.45489        0.53400        0.37489
H         -3.83477        2.18495        0.65658
H         -3.73564        1.59687       -1.02425
C         -1.21599        1.38308        0.10716
H         -2.37751       -0.39622       -0.22834
H         -2.46660        0.22403        1.43909
O         -0.06099        0.60660        0.44296
H         -1.25788        2.31587        0.71757
H         -1.18560        1.68845       -0.96575
H          0.73677        1.14086        0.29194
