9
3-BROMO-1-PROPENE.gamout	Energy:   -2691.3428526
C         -0.00304        0.07830        0.26849
C          1.10675        0.56130       -0.32158
C          2.44585       -0.07855       -0.20857
Br         3.74456        1.13672        0.71724
H         -0.97849        0.56765        0.13694
H          0.02401       -0.82361        0.89992
H          1.05224        1.47277       -0.93980
H          2.42827       -1.00397        0.39257
H          2.91708       -0.26535       -1.19102
