10
3-BUTENENITRILE.gamout	Energy:    -209.9929364
N         -2.26702        0.45467       -0.00818
C          0.05714       -0.79640       -0.11241
C          1.19332        0.03696        0.44861
C          2.26957        0.40892       -0.26233
C         -1.23995       -0.10501       -0.05705
H         -0.04805       -1.74489        0.46047
H          0.26397       -1.07946       -1.16531
H          1.09669        0.32966        1.50695
H          3.07285        1.00403        0.19365
H          2.38777        0.13513       -1.32240
