26
3-CARENE.gamout	Energy:    -390.3964811
C         -1.46358        0.71414        0.29456
C         -2.12501       -0.41497       -0.04251
C         -1.63900       -1.46504       -1.00656
C         -0.10660        1.06528       -0.27530
C          0.46073        0.10364       -1.31189
C         -0.31205       -1.15473       -1.68590
C          1.02011       -1.26767       -0.95660
C         -2.04261        1.71783        1.26065
C          1.05539       -1.72677        0.49051
C          2.21294       -1.75850       -1.76272
H          0.98203        0.60174       -2.14327
H         -0.28300       -1.43051       -2.74960
H         -3.11170       -0.59641        0.41401
H         -2.41635       -1.61086       -1.78872
H         -1.58372       -2.44908       -0.48430
H          0.61337        1.20104        0.56623
H         -0.18442        2.07635       -0.73378
H         -3.02052        1.38715        1.65582
H         -2.18060        2.71075        0.77969
H         -1.35964        1.88198        2.12239
H          1.97885       -1.36953        0.99150
H          1.06715       -2.83500        0.54705
H          0.19013       -1.36768        1.07653
H          3.16411       -1.39244       -1.32432
H          2.17142       -1.41359       -2.81366
H          2.25578       -2.86692       -1.77338
