15
3-CHLORO-2-METHYL-1-BUTENE.gamout	Energy:    -655.9047955
C         29.92950       17.08181        0.13869
C         28.42249       17.05408        0.00155
C         27.79148       15.68612       -0.06954
C         27.69524       18.18810       -0.08371
C         30.62873       18.42338       -0.00648
Cl        30.39752       16.35448        1.79663
H         30.36379       16.34563       -0.56793
H         28.21993       15.09217       -0.90518
H         27.98983       15.11380        0.85951
H         26.69829       15.75132       -0.21618
H         26.60362       18.14733       -0.20977
H         28.14943       19.18610       -0.03397
H         31.72138       18.29714        0.09283
H         30.41432       18.84944       -1.00755
H         30.29312       19.14108        0.76510
