12
3-CHLORO-1-PROPANOL.gamout	Energy:    -653.7274899
Cl         2.62787        1.65862        1.23306
O         -2.42033        0.66577        0.94261
C         -0.06407        1.03264        1.05631
C         -1.16450        0.00496        0.78092
C          1.32583        0.42657        0.90973
H         -0.19722        1.43567        2.07985
H         -0.18362        1.88075        0.35307
H         -1.05838       -0.40094       -0.25305
H         -1.07353       -0.85478        1.48666
H          1.50152       -0.39676        1.62764
H          1.51144        0.05111       -0.11418
H         -3.13885        0.03363        0.77178
