12
3-CYANOPYRIDINE.gamout	Energy:    -340.2921193
N          1.90542       -1.12237        0.00011
N         -2.89358       -0.50238        0.00604
C         -0.30923       -0.13870        0.00240
C          0.25132        1.15808        0.00008
C          1.64343        1.28391       -0.00230
C          0.57329       -1.24833        0.00238
C          2.42771        0.11709       -0.00233
C         -1.73131       -0.33774        0.00440
H         -0.40128        2.04086        0.00008
H          2.11722        2.27512       -0.00421
H          0.16571       -2.27163        0.00430
H          3.52903        0.18505       -0.00433
