21
3-DIMETHYLAMINOPROPYLAMINE.gamout	Energy:    -308.2373001
N          1.42967       -0.51581        1.71608
N         -2.50456       -0.33231       -0.22691
C          0.76995        0.76575        1.47078
C         -0.36385        0.69706        0.43985
C         -1.46275       -0.30370        0.80680
C          2.16923       -1.00447        0.56214
C          2.26535       -0.46669        2.90447
H          0.35339        1.10997        2.44006
H          1.50921        1.55050        1.14947
H          0.02251        0.45159       -0.57045
H         -0.80089        1.71569        0.35086
H         -1.84585       -0.06108        1.83006
H         -1.01959       -1.31649        0.88006
H          1.49449       -1.15283       -0.30106
H          2.62748       -1.98320        0.80154
H          2.98961       -0.30616        0.24330
H          3.11310        0.26400        2.81301
H          2.69734       -1.46631        3.10175
H          1.65548       -0.17631        3.78175
H         -2.99129        0.56911       -0.28657
H         -3.21549       -1.04143       -0.02260
