17
3-ETHYLPYRIDINE.gamout	Energy:    -326.6898752
C          1.85229        2.15215       -0.99168
C          2.67352        1.64453        0.21059
C          2.95480        0.15795        0.15081
C          4.03154       -0.37055       -0.58608
C          2.12435       -0.77212        0.81165
C          4.22384       -1.75803       -0.63426
N          2.29287       -2.10419        0.77532
C          3.32542       -2.58379        0.06171
H          1.67135        3.24132       -0.91047
H          2.38149        1.96133       -1.94626
H          0.87058        1.64121       -1.04432
H          2.12915        1.87725        1.14895
H          3.63441        2.19776        0.25982
H          4.71944        0.30584       -1.11553
H          1.27218       -0.40817        1.41218
H          5.05966       -2.19780       -1.19856
H          3.44471       -3.68007        0.04690
