19
3-ETHYLCYCLOPENTENE.gamout	Energy:    -273.7587007
C          2.07570        3.31233        0.97860
C          2.75311        1.95684        1.21494
C          2.59060        1.38407        2.64395
C          1.12612        1.01204        3.04279
C          3.01756        2.33014        3.74780
C          0.88779        1.57115        4.47643
C          2.10205        2.43623        4.72950
H          2.22079        3.65015       -0.06611
H          0.98370        3.26529        1.16227
H          2.48959        4.09142        1.64858
H          2.36341        1.21046        0.49055
H          3.83805        2.04684        0.99575
H          3.23097        0.47344        2.68775
H          0.40968        1.47028        2.33228
H          0.95905       -0.08090        2.99136
H          3.98817        2.84701        3.73869
H         -0.05814        2.14668        4.56001
H          0.81403        0.76330        5.23931
H          2.21852        3.05025        5.63368
