22
3-ETHYLCYCLOHEXENE.gamout	Energy:    -313.0512076
C          2.83119        1.30200        0.76282
C          1.33172        1.27966        1.09928
C          3.68234        1.00241        2.00618
C          1.03486        1.98256        2.39935
C          1.98315        2.33625        3.29378
C          3.45802        2.02982        3.13956
C          4.32765        3.30622        2.97705
C          4.28840        4.26411        4.17601
H          3.09663        2.30298        0.36119
H          3.05590        0.57409       -0.04238
H          0.95767        0.22970        1.15051
H          0.74644        1.74829        0.27945
H          4.75786        0.96903        1.73932
H          3.41904       -0.00903        2.38276
H         -0.01970        2.21627        2.61961
H          1.67308        2.86037        4.21090
H          3.78835        1.55336        4.09184
H          5.37574        2.97946        2.80657
H          4.01575        3.84617        2.05848
H          4.58810        3.74542        5.10935
H          3.27725        4.68731        4.33576
H          4.98236        5.11480        4.02813
