20
3-ETHOXY-1,2-PROPANEDIOL.gamout	Energy:    -423.1213550
C         -0.15688       -0.04105        2.20914
C          0.98077        0.48058        3.07338
O          1.95580        1.08062        2.23107
C          3.07249        1.58075        2.94502
C          4.07973        2.16530        1.96547
C          5.07884        3.10139        2.66481
O          4.78631        1.08096        1.35103
O          4.37284        4.25722        3.11832
H         -0.62252        0.78619        1.63989
H         -0.93391       -0.51488        2.83935
H          0.21861       -0.79247        1.48889
H          0.60314        1.23009        3.81196
H          1.44405       -0.35053        3.65923
H          2.75901        2.37278        3.66474
H          3.57096        0.76358        3.52252
H          3.51421        2.75245        1.20870
H          5.56875        2.55741        3.50560
H          5.87214        3.37621        1.93232
H          5.13728        1.37523        0.49370
H          4.99355        4.86313        3.55586
