29
3-ETHYL-2-METHYLHEXANE.gamout	Energy:    -354.7572283
C          2.70702        1.11995        2.78001
C          4.15004        1.61135        3.04726
C          5.15280        1.25673        1.90116
C          4.23025        3.09122        3.47592
C          1.91017        1.83210        1.67799
C          5.28413        2.31106        0.78866
C          6.54391        0.94100        2.47733
C          3.48665        3.42212        4.77625
C          0.49468        1.26789        1.50095
H          2.75590        0.03478        2.54165
H          2.12769        1.18209        3.72658
H          4.49129        1.01783        3.92461
H          4.77802        0.32165        1.42797
H          3.85713        3.74753        2.66262
H          5.29962        3.35769        3.60202
H          1.84679        2.91761        1.90138
H          2.45060        1.75424        0.71321
H          5.97421        1.94808        0.00155
H          5.70591        3.26030        1.17492
H          4.32126        2.54554        0.30023
H          6.98648        1.82791        2.97676
H          7.24837        0.62590        1.68225
H          6.48691        0.12647        3.22442
H          3.63243        4.48329        5.05420
H          3.85458        2.80108        5.61837
H          2.39568        3.25109        4.68985
H         -0.05770        1.81727        0.71495
H         -0.09460        1.34247        2.43753
H          0.52175        0.19784        1.20993
