23
3-ETHYLPENTANE.gamout	Energy:    -276.1892916
C          4.66674        4.18124        1.18440
C          3.36935        3.47627        1.64087
C          3.34123        1.98673        1.20275
C          2.14513        4.27032        1.13625
C          5.93388        3.72299        1.91688
C          2.80519        1.01097        2.26052
C          0.77126        3.75510        1.58379
H          4.78733        4.03096        0.08860
H          4.54926        5.27628        1.32892
H          3.35201        3.50642        2.75586
H          2.74302        1.89488        0.27002
H          4.36649        1.66538        0.92568
H          2.25616        5.32327        1.47318
H          2.18366        4.30203        0.02424
H          6.82668        4.26053        1.54433
H          5.85218        3.91801        3.00553
H          6.12600        2.63881        1.78565
H          1.77169        1.26127        2.56951
H          3.43850        1.03553        3.17021
H          2.79856       -0.03146        1.88324
H          0.70338        3.71169        2.68997
H         -0.03451        4.42428        1.22473
H          0.55067        2.74192        1.19236
