32
3-ETHYL-2,2,3-TRIMETHYLPENTANE.gamout	Energy:    -394.0339966
C         -0.39454       45.93632        0.13989
C          0.60682       44.80120        0.40058
C          2.05885       45.00381       -0.11402
C          2.89336       43.65050        0.09147
C          2.01122       45.35534       -1.62218
C          2.70722       46.24581        0.57417
C          2.51898       42.59739       -0.97817
C          2.63569       42.98389        1.46422
C          4.41039       43.90343       -0.03407
C          2.85637       46.27852        2.10101
H         -1.37872       45.66792        0.56849
H         -0.08157       46.88860        0.61082
H         -0.54983       46.13128       -0.93852
H          0.20629       43.87195       -0.05295
H          0.63272       44.61360        1.49108
H          3.02278       45.34389       -2.07012
H          1.60081       46.37069       -1.77659
H          1.37673       44.65242       -2.19206
H          3.69677       46.42369        0.10730
H          2.09696       47.12438        0.27613
H          3.00950       41.63405       -0.73508
H          2.85792       42.89386       -1.98667
H          1.42986       42.40682       -1.02375
H          3.31672       42.11784        1.58849
H          2.80998       43.66252        2.31636
H          1.60509       42.59256        1.54723
H          4.80602       44.50963        0.80147
H          4.95563       42.93825       -0.02163
H          4.67037       44.41417       -0.98035
H          3.16897       47.28969        2.42949
H          1.90329       46.04982        2.61637
H          3.61826       45.56783        2.47257
