21
3-ETHYL-2-PENTENE.gamout	Energy:    -274.9674453
C          3.32186        0.61995        2.40241
C          3.11596        1.84587        1.53236
C          4.39196        2.60005        1.20689
C          1.89868        2.24808        1.09655
C          3.34525        0.94261        3.91060
C          4.26150        3.91147        0.42935
C          0.57054        1.59162        1.35505
H          4.28386        0.13877        2.12242
H          2.53567       -0.13407        2.20298
H          5.06157        1.90660        0.64760
H          4.93104        2.79637        2.16166
H          1.85092        3.16253        0.48418
H          4.13196        1.68427        4.15174
H          2.37521        1.36508        4.23887
H          3.54417        0.03190        4.50819
H          5.25763        4.36490        0.26726
H          3.64008        4.64773        0.97718
H          3.80059        3.75165       -0.56555
H         -0.11543        2.28109        1.89257
H          0.65064        0.66845        1.95744
H          0.06178        1.32983        0.40211
