29
3-ETHYL-4-METHYLHEXANE.gamout	Energy:    -354.7593881
C          2.41336        3.95110        2.56673
C          3.68169        3.14214        2.15246
C          3.34589        1.67736        1.79201
C          4.80074        3.21610        3.21379
C          1.53748        3.19480        3.58758
C          1.60654        4.37563        1.32890
C          4.40841        0.97056        0.94072
C          5.51101        4.57345        3.29694
C          0.48879        4.06389        4.29267
H          2.76410        4.88244        3.06469
H          4.07345        3.62456        1.22759
H          2.38301        1.64223        1.24299
H          3.18201        1.10276        2.72804
H          5.55779        2.43510        2.99539
H          4.37893        2.95083        4.20735
H          2.18892        2.73714        4.36043
H          1.03038        2.34809        3.07874
H          1.29129        3.49171        0.73912
H          0.69296        4.93913        1.60017
H          2.21185        5.02313        0.66505
H          4.56593        1.50179       -0.01945
H          5.38923        0.90936        1.45219
H          4.09610       -0.06491        0.70520
H          5.98439        4.83197        2.32808
H          4.81347        5.39430        3.55519
H          6.30678        4.56650        4.06734
H         -0.25743        4.47310        3.58461
H          0.96617        4.91962        4.81064
H         -0.06165        3.47434        5.05012
