14
3-ETHYL_ACROLEIN.gamout	Energy:    -270.3586682
C          2.89748        2.12508        3.77706
C          1.94434        1.70383        2.91028
C          1.07149        2.57548        2.06353
C          3.71497        1.17721        4.56928
C          1.22116        2.28235        0.55609
O          3.61793       -0.04503        4.52778
H          3.09474        3.20078        3.92241
H          1.80840        0.61063        2.81496
H          0.01188        2.39463        2.35370
H          1.28265        3.64368        2.27272
H          4.47240        1.65957        5.25241
H          0.52918        2.91401       -0.03334
H          0.99284        1.22221        0.32979
H          2.25369        2.48679        0.21301
