24
3-ETHYL-TRANS-2-HEXENE.gamout	Energy:    -314.2530717
C          0.74484        0.74079       -2.17301
C          2.18545        0.39084       -1.92555
C          3.23226        1.22443       -1.71074
C          4.62605        0.65483       -1.48386
C          4.94511        0.18991       -0.03911
C          6.33930       -0.45361        0.00953
C          4.82784        1.31466        0.99863
C          3.13547        2.72952       -1.71800
H          0.08004        0.25647       -1.42549
H          0.41385        0.36818       -3.16624
H          0.54849        1.82833       -2.14148
H          2.40837       -0.69143       -1.93339
H          5.38481        1.41017       -1.78534
H          4.77343       -0.21452       -2.15682
H          4.19538       -0.58996        0.22110
H          7.12592        0.28883       -0.23978
H          6.42310       -1.28760       -0.71414
H          6.56155       -0.85142        1.01874
H          5.52676        2.14454        0.76418
H          5.07905        0.94263        2.01085
H          3.80272        1.72787        1.04160
H          3.59138        3.16236       -0.80418
H          2.09982        3.10444       -1.79553
H          3.71406        3.14555       -2.57140
