32
3-ETHYL-2,2,4-TRIMETHYLPENTANE.gamout	Energy:    -394.0355674
C         34.20403       10.17009        0.24415
C         33.93424       11.62016       -0.24206
C         35.61327        9.94918        0.80953
C         34.61998       11.82021       -1.63696
C         32.43164       12.04738       -0.02134
C         33.87882       11.25999       -2.86250
C         35.08496       13.26065       -1.90320
C         32.20056       12.16341        1.50517
C         32.10268       13.43375       -0.61273
C         31.43079       11.02235       -0.58953
H         33.47730        9.88726        1.02939
H         34.02535        9.46036       -0.59174
H         34.50770       12.28533        0.44051
H         35.75342        8.89380        1.11152
H         36.40923       10.18949        0.07647
H         35.78500       10.58007        1.70511
H         35.55561       11.22456       -1.55142
H         34.54752       11.27199       -3.74726
H         33.54908       10.21384       -2.71761
H         32.98923       11.86727       -3.12048
H         35.76802       13.29277       -2.77558
H         35.63268       13.66817       -1.03187
H         34.24450       13.94339       -2.12491
H         31.15763       12.46617        1.72622
H         32.38756       11.21184        2.03531
H         32.87301       12.92656        1.94346
H         31.07958       13.73213       -0.30591
H         32.13176       13.44550       -1.71725
H         32.80097       14.20591       -0.23698
H         31.49249       10.94759       -1.68911
H         31.59369       10.01271       -0.17176
H         30.39479       11.32171       -0.33431
