19
3-HEXANONE.gamout	Energy:    -310.8807116
O         -0.67398       -1.29859        0.03831
C          0.80581        0.59774       -0.00323
C          1.98206       -0.38086        0.01141
C         -0.56161       -0.07889        0.01228
C         -1.78337        0.83414       -0.00597
C          3.34743        0.31571       -0.00545
C         -3.10980        0.07938        0.01140
H          0.84929        1.26159       -0.89634
H          0.85325        1.29441        0.86433
H          1.88756       -1.03185        0.90358
H          1.88178       -1.06218       -0.85712
H         -1.69884        1.49172       -0.89959
H         -1.69681        1.52834        0.85934
H          4.17415       -0.42125        0.00389
H          3.47702        0.97487        0.87723
H          3.47004        0.94424       -0.91119
H         -3.96251        0.78339       -0.00138
H         -3.19102       -0.59035       -0.86507
H         -3.18745       -0.55450        0.91434
