19
3-HEPTYNE.gamout	Energy:    -273.7189488
C          5.69915        2.39166        1.42283
C          4.23363        2.31133        1.45986
C          3.00859        2.25236        1.50343
C          6.31885        3.31125        2.50266
C          1.54506        2.14399        1.53327
C          5.92186        4.78398        2.36531
C          1.00599        0.80291        0.99372
H          6.11787        1.36865        1.53623
H          6.02232        2.74115        0.41661
H          7.42260        3.21339        2.43844
H          6.02511        2.93206        3.50294
H          1.19067        2.29062        2.57689
H          1.10625        2.98092        0.94762
H          4.82363        4.91096        2.43414
H          6.24744        5.19709        1.38888
H          6.38668        5.39617        3.16176
H          1.39353       -0.04705        1.58705
H         -0.09991        0.78609        1.04247
H          1.31024        0.64907       -0.05910
