22
3-HEPTANONE.gamout	Energy:    -350.1657199
C          4.53678        2.59840        1.62907
C          3.75646        3.06403        2.85526
C          2.37435        2.45246        3.05937
O          4.21255        3.89179        3.63493
C          5.99745        3.05414        1.61372
C          1.64211        2.99549        4.28294
C          6.73950        2.69794        0.31883
C          8.20721        3.14628        0.32304
H          4.44793        1.49277        1.54950
H          3.99488        2.98837        0.73614
H          1.78974        2.61071        2.12586
H          2.50630        1.34948        3.12238
H          6.51974        2.61235        2.48851
H          6.02229        4.15027        1.78018
H          2.22331        2.80017        5.20367
H          0.64627        2.52658        4.38776
H          1.51172        4.09131        4.20770
H          6.68595        1.60037        0.14882
H          6.21420        3.16529       -0.54271
H          8.28568        4.23845        0.49740
H          8.78135        2.63893        1.12471
H          8.70353        2.92099       -0.64081
