21
3-HEXANOL.gamout	Energy:    -312.0820458
C          3.09779        0.33020        0.26831
C          1.73716        0.77432       -0.27966
C          0.55667       -0.08564        0.20503
C         -0.80285        0.48985       -0.22602
C         -2.01460       -0.23615        0.37522
C         -3.35663        0.36343       -0.06325
O          0.70200       -1.46047       -0.19510
H          3.10954        0.37660        1.37612
H          3.32427       -0.71303       -0.02446
H          3.91323        0.97856       -0.10683
H          1.53844        1.82943        0.00560
H          1.74927        0.76021       -1.39340
H          0.58448       -0.13518        1.31571
H         -0.83355        1.56429        0.05856
H         -0.86358        0.47035       -1.33899
H         -1.96998       -1.30939        0.09893
H         -1.93459       -0.20481        1.48346
H         -3.43621        1.42894        0.23480
H         -3.47681        0.31621       -1.16505
H         -4.20925       -0.17840        0.39032
H          0.68327       -1.49350       -1.16969
