16
3-HEXYNE.gamout	Energy:    -234.4335259
C          1.86740        2.30467        1.24704
C          0.71405        3.20912        1.33018
C          1.03652        4.66564        0.93385
C          2.83822        1.55845        1.17164
C          4.01009        0.67872        1.08408
C          5.35378        1.43750        1.06510
H          0.30882        3.19060        2.36552
H         -0.10032        2.82109        0.68023
H          0.13010        5.29700        1.01611
H          1.40483        4.71928       -0.10870
H          1.81787        5.09053        1.59294
H          3.92847        0.05016        0.17056
H          3.99804       -0.03064        1.94035
H          5.40784        2.12318        0.19764
H          6.19845        0.72419        0.99839
H          5.47911        2.04143        1.98424
