16
3-HYDROXYBENZOIC_ACID.gamout	Energy:    -495.7302368
C          6.36202        1.87639       -0.63231
C          6.90508        0.60908       -0.33738
C          4.96971        2.04154       -0.70352
O          7.24386        2.90542       -0.83913
C          4.11282        0.94306       -0.48095
C          4.65448       -0.32544       -0.18592
C          2.63989        1.19161       -0.57263
C          6.04928       -0.47848       -0.11715
O          2.12824        2.27380       -0.82550
O          1.88757        0.07505       -0.34344
H          7.99698        0.49834       -0.28578
H          4.52219        3.02018       -0.93186
H          6.75682        3.72655       -1.03313
H          3.98912       -1.17912       -0.01303
H          6.47891       -1.46429        0.11225
H          0.95157        0.35538       -0.42850
