24
3-METHYL-TRANS-3-HEPTENE.gamout	Energy:    -314.2540936
C          1.11913       -0.31032        0.37749
C          2.58808       -0.03558        0.05158
C          3.07211       -0.40273       -1.34134
C          2.26280       -0.97479       -2.26630
C          2.59305       -1.36499       -3.68447
C          1.69611       -0.66236       -4.72733
C          2.02318       -1.05775       -6.17191
C          4.52911       -0.07708       -1.57233
H          0.88406       -0.00344        1.41453
H          0.87942       -1.38792        0.28468
H          0.44310        0.24795       -0.29980
H          3.23666       -0.56313        0.78786
H          2.80777        1.04423        0.21605
H          1.21863       -1.17314       -1.97252
H          2.46861       -2.46654       -3.80549
H          3.65513       -1.15114       -3.91629
H          1.80132        0.43641       -4.60512
H          0.63134       -0.89168       -4.50685
H          3.07683       -0.81940       -6.42219
H          1.37646       -0.52184       -6.89383
H          1.87857       -2.14516       -6.34025
H          4.71471        1.01141       -1.44623
H          4.88832       -0.37183       -2.57293
H          5.16770       -0.58766       -0.81896
