16
3-METHYL-CIS-1,3-PENTADIENE.gamout	Energy:    -234.4526964
C          1.28390        2.54646        1.08591
C          2.61429        1.91634        1.22354
C          3.77207        2.59406        1.45142
C          2.60601        0.40276        1.14659
C          0.96883        3.63961        0.35643
C          3.96406        4.07085        1.64408
H          0.46006        2.01736        1.60132
H          4.68666        1.98137        1.54604
H          3.61847       -0.01748        1.29435
H          2.22346        0.05429        0.16416
H          1.93505       -0.03071        1.91919
H          1.72275        4.17394       -0.24005
H         -0.06591        4.01139        0.30592
H          4.63086        4.26367        2.51007
H          3.00747        4.60092        1.80861
H          4.45856        4.53632        0.76328
