24
3-METHYL-3-HEXANOL.gamout	Energy:    -351.3685874
C          0.64822        1.46430        0.70814
C          0.49063        0.11428        0.00024
C          1.60743       -0.88102        0.40613
C          3.04217       -0.42159        0.12494
C         -0.88329       -0.52891        0.31539
C         -2.11910        0.28778       -0.08381
C         -3.43175       -0.47696        0.12726
O          0.58763        0.41651       -1.41200
H          1.62200        1.92534        0.46386
H         -0.14290        2.16532        0.38732
H          0.58211        1.33626        1.80541
H          1.48824       -1.11510        1.48529
H          1.41354       -1.83652       -0.12955
H          3.16035       -0.12006       -0.93345
H          3.32735        0.44203        0.75577
H          3.76130       -1.23605        0.33561
H         -0.92164       -1.51710       -0.19717
H         -0.92044       -0.75988        1.40218
H         -2.15300        1.23029        0.50028
H         -2.02171        0.58984       -1.14654
H         -3.46124       -1.40534       -0.47870
H         -3.56571       -0.76874        1.18927
H         -4.30218        0.14191       -0.16181
H          0.50086       -0.41739       -1.90854
