16
3-METHYLCYCLOPENTENE.gamout	Energy:    -234.4753752
C          0.63537        2.31776        2.08656
C          1.78500        1.30089        2.04198
C          2.53035        1.11785        3.39504
C          4.02211        0.87938        3.03683
C          4.12754        1.44314        1.63721
C          2.91371        1.66510        1.09535
H          1.01203        3.32276        2.36572
H          0.13551        2.40018        1.10163
H         -0.13093        2.02171        2.83025
H          1.35675        0.32181        1.71715
H          2.44005        2.05656        3.98142
H          2.09872        0.30804        4.01405
H          4.71669        1.36344        3.75351
H          4.28372       -0.20382        3.04134
H          5.08549        1.60223        1.12269
H          2.73562        2.03395        0.07518
