16
3-METHYLTHIACYCLOPENTANE.gamout	Energy:    -594.5356880
C          6.28813        2.41307       -1.88033
C          6.04600        1.41087       -0.74394
C          6.90650        1.66743        0.50517
C          6.68372        0.49599        1.46567
S          6.54020       -1.02037        0.40470
C          6.33898       -0.04147       -1.15596
H          5.65818        2.18430       -2.76163
H          6.05067        3.44566       -1.55752
H          7.34828        2.39322       -2.20596
H          4.97743        1.46588       -0.43934
H          7.97565        1.71351        0.20711
H          6.65091        2.63372        0.98465
H          7.52039        0.35737        2.17476
H          5.74850        0.61850        2.04716
H          7.27509       -0.10326       -1.74728
H          5.51861       -0.48320       -1.75087
