19
3-METHYL-1,5-HEXADIENE.gamout	Energy:    -273.7246957
C          3.49159        0.94658        1.91788
C          2.91693        2.12419        1.07729
C          1.45360        2.37831        1.40953
C          3.76978        3.39885        1.22297
C          4.85675        0.49140        1.47835
C          0.98027        2.76428        2.60887
C          5.94681        0.41070        2.26381
H          2.78098        0.09577        1.83425
H          3.51371        1.23401        2.98983
H          2.96072        1.81099        0.01242
H          0.72922        2.22252        0.59160
H          3.76978        3.75187        2.27340
H          3.37007        4.21513        0.59217
H          4.81964        3.20894        0.92748
H          4.94525        0.18820        0.41839
H         -0.09545        2.92287        2.77090
H          1.63918        2.94120        3.47392
H          5.91311        0.69987        3.32644
H          6.90933        0.04693        1.87579
