21
3-METHYL-2-ETHYL-1-BUTENE.gamout	Energy:    -274.9643650
C          1.95615        1.35612        2.24440
C          3.34513        1.71019        1.71617
C          4.47957        1.42567        2.68244
C          3.54619        2.24104        0.49247
C          1.41901        2.47654        3.16113
C          0.93025        1.01795        1.15295
C          5.88507        1.85327        2.25613
H          2.08125        0.44639        2.87561
H          4.23239        1.89157        3.66289
H          4.47235        0.33070        2.88876
H          4.54854        2.51643        0.13890
H          2.71722        2.42500       -0.20372
H          0.45671        2.17827        3.62215
H          1.24749        3.40149        2.57463
H          2.12131        2.72045        3.98089
H         -0.01510        0.66385        1.60788
H          1.30873        0.22679        0.47879
H          0.68194        1.90450        0.53539
H          5.94278        2.94665        2.08670
H          6.19746        1.34844        1.32061
H          6.62180        1.59337        3.03903
