21
3-METHYL-TRANS-3-HEXENE.gamout	Energy:    -274.9685290
C          3.27283        2.50518        2.36498
C          4.49756        1.92775        2.31685
C          5.64878        2.52281        1.52448
C          4.85823        0.64188        3.02339
C          2.03048        1.99911        3.05068
C          5.38182        3.82230        0.76331
C          0.88415        1.71724        2.05949
H          3.13432        3.45329        1.81829
H          6.50834        2.66519        2.21781
H          6.00098        1.74412        0.80923
H          5.70825        0.80116        3.72160
H          4.02243        0.21081        3.60105
H          5.19631       -0.12417        2.29294
H          2.24944        1.08378        3.63399
H          1.68391        2.75456        3.79137
H          5.09093        4.64295        1.44880
H          6.28867        4.14678        0.21922
H          4.56922        3.69538        0.02162
H          1.16981        0.92920        1.33504
H         -0.02973        1.38631        2.58994
H          0.62792        2.62549        1.47716
