18
3-METHYL-CIS-2-PENTENE.gamout	Energy:    -235.6832565
C          3.46655        1.92469        1.22260
C          2.11088        2.60323        1.16840
C          0.94199        1.93690        1.00552
C          2.12845        4.10657        1.32316
C          4.00044        1.72139        2.65622
C          0.73130        0.45621        0.85101
H          3.42201        0.94226        0.71328
H          4.19814        2.53533        0.64952
H          0.01928        2.54380        1.00063
H          2.59725        4.41268        2.28300
H          1.10972        4.53672        1.29089
H          2.72941        4.58111        0.51718
H          4.10161        2.68344        3.19559
H          4.99680        1.23714        2.64062
H          3.31450        1.07919        3.24275
H          0.19901        0.03764        1.73275
H          0.09144        0.23457       -0.02994
H          1.67533       -0.10800        0.73664
