24
3-METHYL-1-HEPTENE.gamout	Energy:    -314.2470428
C         51.98940       29.95021       -0.07253
C         50.74947       29.02494       -0.08459
C         49.93205       29.21172       -1.33800
C         51.17235       27.54891        0.06884
C         51.67293       31.45088       -0.02816
C         48.64660       29.60498       -1.38716
C         52.92704       32.33460        0.00324
C         52.62014       33.83511        0.06872
H         52.61322       29.68288        0.80795
H         52.61587       29.72966       -0.96648
H         50.10982       29.29816        0.78473
H         50.45919       28.98917       -2.28516
H         50.29309       26.87790        0.10178
H         51.75576       27.40439        0.99962
H         51.81039       27.23268       -0.78205
H         51.04403       31.72793       -0.90113
H         51.05179       31.65965        0.87169
H         48.10896       29.70828       -2.34083
H         48.08616       29.83432       -0.46692
H         53.55003       32.04484        0.87746
H         53.54822       32.12147       -0.89439
H         53.54929       34.43632        0.09597
H         52.03094       34.16905       -0.80954
H         52.03150       34.08218        0.97573
