18
3-METHYL-2-BUTANOL.gamout	Energy:    -272.7963795
C          1.86557        1.94184        3.39601
C          2.73582        1.89406        2.11704
C          1.92987        1.43913        0.88771
C          3.96574        0.99393        2.31830
C          0.66509        2.88904        3.28922
O          2.65125        2.26042        4.55913
H          1.49826        0.91186        3.59901
H          3.09055        2.93552        1.93108
H          1.12497        2.14802        0.61822
H          1.46724        0.44576        1.06581
H          2.59268        1.33854        0.00599
H          4.55684        1.31283        3.19475
H          4.61545        1.01739        1.42236
H          3.65673       -0.05937        2.48304
H          0.99373        3.91118        3.00344
H         -0.06363        2.54653        2.53018
H          0.14361        2.94847        4.26324
H          2.89526        3.20345        4.51525
