21
3-METHYL-1-HEXENE.gamout	Energy:    -274.9597652
C          2.64505        0.99218        3.38575
C          3.45358        1.25945        2.08545
C          4.22248        2.55760        2.14259
C          2.56111        1.20213        0.82849
C          1.56454        2.02515        3.74472
C          5.56386        2.66684        2.16201
C          0.77605        1.64911        5.00674
H          2.16812       -0.00793        3.28786
H          3.36110        0.91121        4.23066
H          4.19933        0.43897        2.00401
H          3.61821        3.48281        2.16034
H          1.99874        0.24811        0.79239
H          1.82414        2.02984        0.80826
H          3.17052        1.27942       -0.09162
H          2.03574        3.01974        3.89028
H          0.85778        2.14178        2.89673
H          6.21337        1.77684        2.13834
H          6.05783        3.64832        2.20019
H          0.26022        0.67442        4.88494
H          1.44207        1.56344        5.88965
H          0.00458        2.40769        5.24241
