18
3-METHYL-1-PENTENE.gamout	Energy:    -235.6748609
C          3.63933        1.62316        2.82722
C          2.97121        2.96617        2.42006
C          1.53539        2.76418        1.98757
C          3.82861        3.70339        1.38421
C          2.98946        0.89349        4.00976
C          0.98285        3.11077        0.80968
H          4.69945        1.84119        3.07701
H          3.66306        0.95806        1.93744
H          2.94000        3.58853        3.34664
H          0.88797        2.27099        2.73239
H          3.92173        3.11565        0.44828
H          3.39947        4.69041        1.12423
H          4.85037        3.87049        1.77651
H          1.95589        0.56821        3.78227
H          3.56795       -0.01215        4.27799
H          2.94947        1.54189        4.90894
H          1.55176        3.61093        0.01162
H         -0.07690        2.90192        0.60316
