20
3-METHYLPENTANE.gamout	Energy:    -236.9079634
C          2.10879        2.60284        1.47356
C          2.08322        2.04600        2.91346
C          3.51336        2.01530        3.49679
C          1.40429        0.67017        2.98980
C          0.73273        2.82630        0.83196
C          3.60591        1.61207        4.97457
H          2.66392        3.56460        1.48401
H          2.70878        1.91538        0.83682
H          1.48830        2.75635        3.53437
H          4.13489        1.32711        2.88188
H          3.95972        3.02336        3.36669
H          1.96312       -0.07670        2.38739
H          0.36608        0.70129        2.60938
H          1.35803        0.29750        4.03013
H          0.08746        3.45733        1.47709
H          0.82974        3.33753       -0.14521
H          0.19830        1.87305        0.65177
H          2.93773        2.23872        5.60041
H          3.32222        0.55366        5.13680
H          4.63697        1.73702        5.35803
