21
3-METHYL-TRANS-2-HEXENE.gamout	Energy:    -274.9689803
C          0.45155        2.99639        1.49210
C          1.87974        2.86743        2.03951
C          2.86705        2.25989        1.01856
C          4.29631        2.10372        1.51050
C          5.31836        2.72734        0.87323
C          4.47757        1.19325        2.70102
C          6.78986        2.67451        1.18432
H          0.03578        2.00662        1.21268
H          0.42182        3.63761        0.58785
H         -0.22780        3.44531        2.24264
H          1.86231        2.24443        2.95739
H          2.25529        3.86574        2.34946
H          2.86685        2.88396        0.10136
H          2.48137        1.25829        0.71438
H          5.05133        3.35255        0.00258
H          4.02991        0.19591        2.49955
H          3.95654        1.59006        3.59759
H          5.53671        1.04222        2.97204
H          7.36561        2.29216        0.31400
H          7.03090        2.03430        2.05279
H          7.18922        3.68988        1.39598
