21
3-METHYLPENTANOL.gamout	Energy:    -312.0759306
O         -0.75350        0.91556        3.33657
C          0.68354        0.27624       -0.18472
C         -0.09924        0.03023        1.12277
C          0.82188       -1.01287       -1.02320
C          0.05311        1.39445       -1.03200
C         -0.17675        1.23701        2.06569
C          1.65836       -2.13135       -0.38914
H          1.71207        0.60149        0.09760
H         -1.13161       -0.30375        0.86807
H          0.36743       -0.79961        1.69019
H          1.27296       -0.73655       -1.99952
H         -0.19765       -1.39038       -1.25945
H          0.04691        2.36748       -0.50530
H          0.61338        1.53570       -1.97681
H         -0.99605        1.14592       -1.29622
H          0.84370        1.60709        2.29288
H         -0.73076        2.07954        1.59372
H          1.79009       -2.97499       -1.09463
H          1.18521       -2.54326        0.52342
H          2.66817       -1.76757       -0.10969
H         -1.68342        0.66207        3.20030
