15
3-METHYL-1-BUTENE.gamout	Energy:    -196.3908293
C          3.40701        2.73661        1.26842
C          2.13423        2.02448        1.66869
C          2.10666        0.53567        1.30687
C          0.90527        2.76656        1.10227
C          4.49017        2.20254        0.67459
H          3.41955        3.81739        1.49884
H          2.07013        2.10568        2.78027
H          1.16112        0.07038        1.64641
H          2.17736        0.38926        0.20946
H          2.94345       -0.01414        1.77904
H          0.90181        2.73141       -0.00597
H         -0.03451        2.30445        1.46376
H          0.90070        3.83120        1.40806
H          5.36259        2.82456        0.42720
H          4.55322        1.13589        0.41243
