24
3-METHYL-3-ETHYL-1-PENTENE.gamout	Energy:    -314.2414781
C          0.91682        4.44883        0.45989
C          1.56074        3.14770        0.96206
C          2.78172        3.28051        1.92657
C          3.86765        4.10235        1.24772
C          3.31017        1.86825        2.28926
C          2.36155        4.03474        3.20947
C          5.11283        3.72187        0.90397
C          2.34136        0.91788        3.01110
H          0.59804        5.10423        1.29355
H          1.59925        5.03188       -0.18875
H          0.01349        4.21952       -0.13807
H          1.88023        2.53696        0.09246
H          0.78596        2.55469        1.48919
H          3.58309        5.14827        1.03799
H          3.66170        1.37761        1.35777
H          4.21259        1.99934        2.92271
H          3.18545        4.04604        3.94908
H          2.09911        5.08717        2.99305
H          1.47938        3.55885        3.67877
H          5.80030        4.43175        0.42200
H          5.49784        2.70686        1.07926
H          1.45822        0.65919        2.39501
H          2.85684       -0.03241        3.25037
H          1.97322        1.33657        3.96838
