14
3-METHYLPYRIDINE.gamout	Energy:    -287.4053178
C          2.93602        1.70430       -0.23781
C          3.08983        0.20488       -0.16064
C          4.33798       -0.42133       -0.34356
C          1.99124       -0.64100        0.09945
C          4.43329       -1.81540       -0.26160
N          2.06554       -1.98004        0.18126
C          3.26680       -2.55289        0.00348
H          3.55280        2.20971        0.53298
H          3.26339        2.08999       -1.22443
H          1.88429        2.00975       -0.08409
H          5.23263        0.18542       -0.54962
H          0.99056       -0.19959        0.25020
H          5.39691       -2.32604       -0.40077
H          3.30352       -3.65290        0.07501
