18
3-METHYL_SULFOLANE.gamout	Energy:    -744.8365658
O          0.95725       -3.04439       -0.38248
S          0.87629       -2.10047        0.77378
O          0.32381       -2.55284        2.08693
C          0.03032       -0.53536        0.24277
C          2.53138       -1.30359        1.04227
C          0.97913        0.60314        0.64045
C          2.41245        0.07370        0.38854
C          0.69065        1.91216       -0.10378
H         -0.95402       -0.51564        0.74049
H         -0.09226       -0.61785       -0.85421
H          2.66120       -1.25066        2.13894
H          3.28727       -1.97401        0.59843
H          0.86767        0.78183        1.73219
H          2.59327       -0.00181       -0.70433
H          3.16713        0.77269        0.79745
H         -0.33193        2.28635        0.09612
H          1.40314        2.69935        0.20945
H          0.79592        1.77508       -1.19882
