16
3-METHYL-1,2-PENTADIENE.gamout	Energy:    -234.4383868
C          0.75949        0.05038        0.06841
C          2.07868        0.00679        0.03259
C          3.40285       -0.03027        0.00249
C          4.17548       -0.98961       -0.89293
C          3.32901       -1.91912       -1.76535
C          4.24322        0.89110        0.86794
H          0.18198        0.71060       -0.60220
H          0.17678       -0.57252        0.76960
H          4.85354       -1.59067       -0.24523
H          4.85582       -0.38061       -1.53084
H          2.67554       -2.56393       -1.14601
H          3.97215       -2.57539       -2.38263
H          2.67576       -1.34043       -2.44718
H          3.61746        1.55156        1.49378
H          4.90494        1.52533        0.23949
H          4.90629        0.29931        1.53512
