18
3-METHYL-TRANS-2-PENTENE.gamout	Energy:    -235.6835165
C          3.87327        3.06895        2.15685
C          2.42549        2.64258        1.99478
C          1.94718        1.57279        2.67636
C          1.59834        3.48532        1.05371
C          4.74044        2.90259        0.89227
C          0.56015        0.99109        2.65541
H          3.90204        4.13818        2.46762
H          4.32731        2.48985        2.98615
H          2.66095        1.05156        3.33891
H          0.53327        3.19397        1.03760
H          1.97806        3.42244        0.01167
H          1.65305        4.55755        1.34131
H          4.37088        3.52157        0.05067
H          4.75118        1.84662        0.55662
H          5.78565        3.20911        1.09339
H          0.57649       -0.06778        2.31762
H          0.11920        0.98392        3.67556
H         -0.13327        1.54117        1.99298
