26
3-METHYL-3-ETHYLPENTANE.gamout	Energy:    -315.4739127
C          3.93195        2.04926        1.08551
C          3.30765        3.00593        2.14198
C          3.90512        4.42810        1.94690
C          1.76957        3.07086        1.91934
C          3.61093        2.49156        3.56526
C          3.41895        0.60023        1.05426
C          5.43202        4.57445        2.04713
C          0.96619        4.02846        2.81438
H          3.78701        2.50504        0.08192
H          5.02813        2.02015        1.25082
H          3.57245        4.80668        0.95556
H          3.44827        5.10283        2.69894
H          1.35845        2.04962        2.05217
H          1.58756        3.33615        0.85491
H          3.07503        1.54518        3.77058
H          3.29984        3.22395        4.33475
H          4.69203        2.30021        3.70715
H          3.97834        0.01443        0.29907
H          2.34612        0.53217        0.78778
H          3.55871        0.09490        2.02990
H          5.96943        4.01729        1.25499
H          5.81722        4.22505        3.02512
H          5.71716        5.63953        1.94428
H          1.10154        3.80551        3.89139
H         -0.11555        3.93435        2.59648
H          1.23748        5.09057        2.65517
