21
3-METHYL-2-PENTANOL.gamout	Energy:    -312.0800513
C          0.32371        1.30631       -0.97550
C          0.28259        0.37314        0.24529
C         -1.08168       -0.35130        0.39372
C         -2.24670        0.58494        0.73254
O         -1.38682       -1.17235       -0.74696
C          1.43434       -0.65343        0.23405
C          2.84169       -0.04688        0.29593
H          1.27920        1.86040       -1.02045
H          0.23895        0.73123       -1.92090
H         -0.48538        2.06162       -0.95204
H          0.39985        1.00140        1.15798
H         -0.97291       -1.08531        1.21860
H         -2.45223        1.29493       -0.09437
H         -3.16630       -0.00150        0.91526
H         -2.02075        1.17904        1.64019
H         -1.58999       -0.58758       -1.49940
H          1.29369       -1.33071        1.10235
H          1.33096       -1.29244       -0.66735
H          3.07597        0.55566       -0.60389
H          2.95547        0.61192        1.18124
H          3.61071       -0.84022        0.36500
