24
3-METHYL-TRANS-2-HEPTENE.gamout	Energy:    -314.2543414
C          0.24469       18.84983       -0.64402
C          1.19919       19.78809        0.10502
C          0.94653       21.27721       -0.17999
C          1.92885       22.20875        0.56532
C          1.70501       23.69516        0.35361
C          2.61341       24.43963       -0.32396
C          0.44949       24.26017        0.97327
C          2.58836       25.91620       -0.61154
H          0.43981       17.78923       -0.39334
H         -0.81126       19.06955       -0.38781
H          0.35037       18.95981       -1.74268
H          2.24910       19.53871       -0.16026
H          1.11173       19.60989        1.19899
H         -0.10055       21.52393        0.09807
H          1.02850       21.46757       -1.27202
H          2.96285       21.94937        0.25853
H          1.86064       21.98850        1.65540
H          3.49895       23.90599       -0.71236
H          0.40573       24.02044        2.05748
H          0.37419       25.35677        0.86671
H         -0.46334       23.81967        0.51944
H          1.70836       26.43067       -0.18319
H          3.49700       26.41230       -0.20779
H          2.59033       26.11157       -1.70584
