21
3-METHYL-CIS-2-HEXENE.gamout	Energy:    -274.9670327
C          3.68560        1.35962        1.29050
C          4.02913        0.85432        2.71088
C          5.26119        1.50944        3.34558
C          3.35323        2.84136        1.17909
C          4.45913        3.73604        0.67038
C          2.13284        3.34788        1.48076
C          0.92541        2.59378        1.96454
H          4.53961        1.13244        0.61751
H          2.83511        0.76186        0.90374
H          3.14961        1.00205        3.37163
H          4.18568       -0.24442        2.65579
H          6.16113        1.37431        2.71126
H          5.11077        2.59642        3.49743
H          5.48235        1.06423        4.33507
H          4.15001        4.79790        0.63209
H          5.36827        3.65978        1.30322
H          4.77276        3.42993       -0.35130
H          1.98827        4.43547        1.34952
H          1.07775        1.49880        1.97933
H          0.63842        2.90601        2.99194
H          0.04491        2.80523        1.32200
