17
3-NITROBENZOIC_ACID.gamout	Energy:    -624.9392385
O          8.17222        2.78100       -1.79302
C          6.93073        3.10050       -1.33352
O          6.49737        4.24174       -1.35288
C          6.16135        1.92049       -0.80780
C          6.68114        0.61094       -0.79406
C          4.86172        2.15813       -0.30967
C          5.88740       -0.42594       -0.28169
C          4.08690        1.10514        0.19736
N          6.43419       -1.80853       -0.26501
C          4.59518       -0.20283        0.21613
O          5.71048       -2.69999        0.19161
O          7.57523       -1.98007       -0.70631
H          8.57680        3.61860       -2.10773
H          7.68462        0.38743       -1.17260
H          4.47668        3.18623       -0.33056
H          3.07740        1.30727        0.58167
H          4.01405       -1.04907        0.60650
