25
3-NONYNE.gamout	Energy:    -352.2886112
C          4.50187        2.09251        2.56081
C          4.52860        3.28959        1.58051
C          5.67330        4.19290        1.75048
C          3.35592        1.10166        2.29336
C          6.62775        4.95267        1.88286
C          1.94339        1.65042        2.54582
C          7.77292        5.86142        2.03054
C          0.84347        0.60187        2.33795
C          8.78762        5.79878        0.87035
H          5.47035        1.55750        2.48761
H          4.43935        2.47541        3.60133
H          4.52677        2.89789        0.53884
H          3.59251        3.88083        1.67861
H          3.50677        0.20375        2.93067
H          3.42597        0.73662        1.24380
H          1.74886        2.52136        1.88489
H          1.88749        2.04075        3.58552
H          7.39552        6.90181        2.13505
H          8.29148        5.63479        2.98752
H          0.84054        0.21619        1.29795
H         -0.16116        1.01981        2.54220
H          0.98958       -0.26683        3.01180
H          9.62218        6.50174        1.05651
H          9.20781        4.78007        0.76589
H          8.30961        6.07155       -0.08989
