22
3-OCTYNE.gamout	Energy:    -313.0043184
C          3.39818        3.13003        1.44012
C          4.74519        3.70316        1.37774
C          5.87019        2.65549        1.53810
C          2.28064        2.62902        1.49951
C          7.26918        3.27858        1.46446
C          0.94511        2.02487        1.56573
C          8.39945        2.25506        1.61997
C          0.86226        0.62222        0.92917
H          4.85379        4.48077        2.16653
H          4.87725        4.23566        0.40955
H          5.75916        1.88196        0.74955
H          5.73868        2.13132        2.50797
H          7.36222        4.05744        2.25221
H          7.37903        3.80962        0.49415
H          0.62577        1.96797        2.62908
H          0.21676        2.70193        1.06891
H          8.33661        1.73213        2.59587
H          8.35562        1.48279        0.82540
H          9.39245        2.74046        1.56252
H          1.55206       -0.08031        1.43505
H          1.13801        0.65639       -0.14230
H         -0.16669        0.22070        1.01134
