22
3-PHENYL-1-PROPANOL.gamout	Energy:    -425.1130920
C         -0.97746        1.17669       -0.22248
C          0.42086        1.06413       -0.29672
C         -1.77309        0.02435       -0.13172
C         -1.15857       -1.23920       -0.11042
C          0.23756       -1.34533       -0.18406
C          1.05139       -0.19697       -0.28520
H         -1.44912        2.17068       -0.23252
H         -2.86644        0.10827       -0.07307
H         -1.77328       -2.14728       -0.02358
H          0.70611       -2.33987       -0.15174
H          1.03700        1.97343       -0.35491
C          2.56168       -0.32419       -0.35694
C          3.08739       -0.96511       -1.66086
H          2.91532       -0.93449        0.50342
H          3.01578        0.68025       -0.23359
C          4.61323       -1.11503       -1.64900
H          2.77295       -0.34528       -2.52881
H          2.62821       -1.96507       -1.80245
O          5.14000       -1.77889       -2.79946
H          4.91882       -1.74011       -0.78546
H          5.09232       -0.11696       -1.51057
H          4.95516       -1.23896       -3.58815
