33
3-THIAUNDECANE.gamout	Energy:    -792.1602846
S         -3.97590       -0.71332       -0.00919
C          1.36756       -0.44508        0.00266
C          2.62994        0.43013        0.01075
C          0.06787        0.37382        0.00686
C          3.94520       -0.36261        0.00641
C         -1.20786       -0.48418       -0.00180
C          5.19780        0.52677        0.01427
C         -2.48410        0.36509        0.00253
C          6.51184       -0.26323        0.00962
C         -5.30948        0.55823       -0.00056
C         -6.67654       -0.12528       -0.01033
H          1.38287       -1.12153        0.88585
H          1.38508       -1.10849       -0.89031
H          2.60432        1.09439        0.90295
H          2.60654        1.10722       -0.87185
H          0.05785        1.03677        0.90013
H          0.06059        1.04992       -0.87658
H          3.96981       -1.03940        0.88945
H          3.97154       -1.02644       -0.88633
H         -1.20845       -1.15677        0.88224
H         -1.20534       -1.14322       -0.89596
H          5.16639        1.20334       -0.86748
H          5.16467        1.19026        0.90585
H         -2.51264        1.02447       -0.89035
H         -2.51602        1.01027        0.90557
H          6.58960       -0.90837       -0.88925
H          6.58793       -0.92165        0.89898
H          7.39114        0.41074        0.01549
H         -5.18990        1.20741       -0.89233
H         -5.19446        1.19107        0.90348
H         -6.80515       -0.75352       -0.91307
H         -6.80988       -0.76981        0.88009
H         -7.48325        0.63434       -0.00568
