19
4,4-DIMETHYL-2-PENTYNE.gamout	Energy:    -273.7205704
C          2.38735        3.22836        0.72408
C          2.15846        2.17630        1.83805
C          0.78759        2.43241        2.51201
C          2.16451        0.75907        1.21184
C          3.23780        2.28054        2.84688
C          4.13418        2.37087        3.68047
C          5.20198        2.47477        4.67836
H          3.35846        3.06435        0.22074
H          2.38370        4.25348        1.13978
H          1.58397        3.15801       -0.03685
H          0.74991        3.44173        2.96298
H         -0.02365        2.35613        1.76020
H          0.59240        1.69168        3.30992
H          3.13089        0.54949        0.71636
H          1.99694       -0.01556        1.98318
H          1.35942        0.67685        0.45404
H          5.90044        3.30588        4.44714
H          4.79359        2.66026        5.69348
H          5.80366        1.54356        4.72988
