24
4,4-DIMETHYL-CIS-2-HEXENE.gamout	Energy:    -314.2504321
C          2.65217        2.58093        2.09324
C          1.61165        2.08951        1.38987
C          3.40850        3.88117        1.86271
C          0.90218        0.79062        1.66796
C          4.87583        3.57652        1.42165
C          5.73236        2.73367        2.37508
C          2.76326        4.74342        0.76433
C          3.41195        4.68504        3.18403
H          3.01189        1.98721        2.95313
H          1.22379        2.66534        0.53143
H          1.32538        0.25400        2.53992
H         -0.17786        0.96075        1.86443
H          0.95294        0.11003        0.79096
H          4.83430        3.07657        0.43201
H          5.37717        4.55379        1.25314
H          5.84048        3.21044        3.36903
H          5.30596        1.72308        2.52597
H          6.75320        2.60329        1.96399
H          1.71466        4.99843        1.01207
H          3.32168        5.69167        0.64337
H          2.76980        4.22520       -0.21432
H          3.82791        4.09843        4.02507
H          4.02094        5.60542        3.07873
H          2.38298        4.98304        3.46269
