29
4,4-DIMETHYLHEPTANE.gamout	Energy:    -354.7588652
C          4.71950        1.72532        1.65072
C          4.08806        2.67382        2.70489
C          3.02235        3.57076        2.01134
C          5.14476        3.61122        3.32017
C          3.43882        1.84855        3.83358
C          5.94200        0.88492        2.08606
C          1.85397        2.86557        1.30568
C          7.29993        1.50774        1.73983
C          0.84959        3.84657        0.68979
H          3.92271        1.03680        1.30714
H          4.99505        2.32955        0.75912
H          2.60893        4.26711        2.77392
H          3.54507        4.21358        1.26862
H          5.65044        4.21046        2.53740
H          4.67558        4.31879        4.03204
H          5.91880        3.05163        3.87882
H          2.92241        2.50900        4.55803
H          2.69979        1.12647        3.43934
H          4.19745        1.27179        4.39678
H          5.87638       -0.10803        1.59670
H          5.89578        0.67387        3.17538
H          2.24339        2.19715        0.51063
H          1.32121        2.21086        2.02633
H          7.39114        1.67058        0.64710
H          7.44150        2.48700        2.23417
H          8.13186        0.84924        2.05478
H          0.02416        3.30473        0.19095
H          0.40312        4.50213        1.46454
H          1.32215        4.50525       -0.06838
