19
4,4-DIMETHYLCYCLOPENTENE.gamout	Energy:    -273.7619965
C          7.43217        3.81893        3.07242
C          6.43155        3.24028        4.08926
C          6.86892        3.59487        5.51680
C          4.99677        3.77260        3.76029
C          6.31483        1.69544        3.86884
C          4.36918        2.67139        2.93985
C          5.09078        1.53444        2.99904
H          8.44961        3.41274        3.24063
H          7.13148        3.56863        2.03580
H          7.48868        4.92239        3.15544
H          6.91894        4.69313        5.65962
H          6.15990        3.18811        6.26450
H          7.87318        3.18378        5.74406
H          4.40852        3.95208        4.68876
H          5.02988        4.74573        3.22579
H          6.18174        1.15590        4.83383
H          7.23307        1.27433        3.40683
H          3.42302        2.79021        2.39347
H          4.81894        0.58948        2.50791
