21
4,4-DIMETHYL-CIS-2-PENTENE.gamout	Energy:    -274.9606692
C          3.21700        1.90606        2.48729
C          1.73163        2.06636        2.14100
C          4.20147        2.82764        2.57527
C          1.07667        0.66760        2.19444
C          1.01753        2.97551        3.16815
C          1.54992        2.63546        0.71486
C          4.15209        4.31574        2.36249
H          3.52547        0.86827        2.69948
H          5.19968        2.44055        2.84658
H          1.17955        0.22403        3.20424
H         -0.00384        0.71976        1.95475
H          1.55152       -0.02099        1.46793
H          1.42035        4.00486        3.16121
H         -0.06700        3.03472        2.94273
H          1.13361        2.57601        4.19382
H          1.97469        3.65094        0.61693
H          0.47234        2.69188        0.45828
H          2.04810        1.98763       -0.03151
H          4.47976        4.85312        3.27814
H          4.85680        4.62252        1.56013
H          3.14984        4.69036        2.09294
