24
4,4-DIMETHYL-1-HEXENE.gamout	Energy:    -314.2452271
C          0.87075        3.18473        2.25946
C          1.75322        2.16387        1.52836
C          3.25539        2.10608        1.92654
C          3.93150        3.46883        1.57921
C          3.40791        1.81304        3.43006
C          3.90478        0.96444        1.11881
C          5.41827        3.55515        1.80310
C          6.03121        4.41891        2.63518
H         -0.16058        3.16042        1.85661
H          1.24163        4.22211        2.14445
H          0.80252        2.96927        3.34396
H          1.69769        2.34939        0.43399
H          1.32765        1.14954        1.68135
H          3.43641        4.27321        2.15854
H          3.72150        3.67468        0.50556
H          3.01830        2.64223        4.05093
H          2.86029        0.89110        3.70809
H          4.47186        1.67283        3.69964
H          4.96565        0.81804        1.39567
H          3.85824        1.16502        0.02942
H          3.37709        0.00757        1.30614
H          6.04589        2.86484        1.21243
H          5.45779        5.13734        3.24262
H          7.12576        4.44324        2.73084
