24
4,5-DIMETHYL-1-HEXENE.gamout	Energy:    -314.2431761
C          4.06129        3.62629        2.16309
C          2.53610        3.40767        1.95938
C          2.06124        2.07853        2.62212
C          1.74385        4.62180        2.47455
C          4.66380        4.80313        1.43600
C          0.53576        1.88247        2.53500
C          2.75875        0.84342        2.02382
C          5.77145        4.75665        0.67180
H          4.23642        3.74996        3.25777
H          4.61499        2.71652        1.86346
H          2.35335        3.31025        0.86430
H          2.32959        2.13709        3.70306
H          0.66901        4.54784        2.22893
H          2.11098        5.56800        2.03496
H          1.83526        4.70719        3.57784
H          4.16617        5.78004        1.56614
H          0.19259        1.89614        1.47917
H         -0.02317        2.66184        3.08394
H          0.24658        0.90297        2.96436
H          3.85265        0.84276        2.18337
H          2.57474        0.78167        0.93084
H          2.36211       -0.08450        2.48012
H          6.32067        3.81556        0.50580
H          6.16819        5.65788        0.18534
