24
4,5-DIMETHYL-CIS-2-HEXENE.gamout	Energy:    -314.2498610
C          1.42208        1.00665       -0.71517
C          2.55104        0.19870       -0.13830
C          2.83316       -0.02544        1.16369
C          2.11362        0.48023        2.39171
C          1.54362       -0.70927        3.22280
C          0.88667       -0.25169        4.53495
C          0.54608       -1.53318        2.39478
C          3.07926        1.36365        3.21205
H          0.79625        0.38566       -1.39152
H          1.80984        1.84064       -1.33958
H          0.76133        1.44097        0.05740
H          3.22332       -0.26762       -0.87929
H          3.71177       -0.65832        1.38427
H          1.24938        1.10765        2.08265
H          2.40776       -1.36369        3.48080
H          0.07521        0.47806        4.33217
H          1.60501        0.22478        5.22733
H          0.43735       -1.11353        5.06664
H         -0.33553       -0.91502        2.12624
H          0.17977       -2.40897        2.96481
H          0.99932       -1.89979        1.45548
H          3.90676        0.75489        3.63213
H          2.56556        1.86368        4.05404
H          3.53004        2.14850        2.57533
