26
4-(MMIM)PHO.gamout	Energy:    -610.6877623
N          1.12499       -0.37623       -0.12992
N         -1.06978       -0.49272        0.04386
C          0.06578       -1.27278       -0.12181
C          0.64694        0.91916        0.03155
C         -0.71245        0.84808        0.12827
C          2.50909       -0.67979       -0.46872
C         -2.42005       -0.97499        0.30195
H          1.31618        1.78037        0.05288
H         -1.45719        1.63388        0.26011
H          2.53191       -1.50145       -1.20745
H          2.96814        0.22359       -0.90595
H          3.09580       -0.98707        0.41887
H         -2.94698       -0.22666        0.91902
H         -2.98908       -1.13402       -0.63492
H         -2.36766       -1.93401        0.84806
C          0.13029       -2.69039       -0.24738
C          1.24709       -3.44437        0.25989
C          1.30624       -4.81695        0.16003
C          0.24537       -5.60605       -0.46959
C         -0.87507       -4.81531       -0.98394
C         -0.92414       -3.44288       -0.87527
H          2.04702       -2.92549        0.80743
H          2.15855       -5.37374        0.57653
H         -1.76391       -2.91199       -1.34694
H         -1.68155       -5.36764       -1.48813
O          0.29251       -6.85678       -0.56156
