17
4-AMINO-2-NITROPHENOL.gamout	Energy:    -566.9766545
O          1.49063       -2.16804        0.03226
O          1.88652        1.99139        0.04527
O          2.89144        0.04792        0.05297
N          1.87442        0.74924        0.04275
N         -2.98227        1.24066       -0.01335
C          0.55665        0.08227        0.02600
C         -1.87927        0.40610       -0.00221
C         -0.57111        0.92324        0.01463
C          0.41500       -1.33222        0.02122
C         -2.02390       -1.00550       -0.00734
C         -0.90412       -1.83855        0.00420
H         -0.38559        2.00490        0.01923
H         -3.02879       -1.45361       -0.02034
H         -1.05155       -2.93176       -0.00009
H         -3.92681        0.87060       -0.02571
H         -2.87701        2.25016       -0.00958
H          1.17073       -3.08926        0.02637
