13
4-BROMOPHENOL.gamout	Energy:   -2880.7879654
Br        -3.27361        0.00048       -0.02526
O          2.80966       -0.07814        0.03950
C          1.44083       -0.01195        0.02494
C          0.73321       -1.22807        0.01805
C          0.73741        1.20693        0.01706
C         -0.66806       -1.22557        0.00327
C         -0.66631        1.21338        0.00224
C         -1.36001       -0.00434       -0.00459
H          1.29537       -2.17177        0.02433
H          1.28578        2.16173        0.02240
H         -1.21720       -2.17562       -0.00212
H         -1.21087        2.16625       -0.00393
H          3.18569        0.82022        0.04316
