15
4-CHLOROTOLUENE.gamout	Energy:    -730.8842360
Cl        -2.08041       -0.74361       -0.23273
C          2.43029        0.07707       -0.09830
C          1.93330       -1.23935       -0.19894
C          1.49846        1.13072       -0.04068
C          3.91842        0.33572       -0.05493
C          0.55636       -1.50186       -0.24097
C          0.11529        0.89018       -0.08122
C         -0.34684       -0.42875       -0.18142
H          2.64015       -2.08279       -0.24588
H          1.85902        2.16757        0.03835
H          4.38733       -0.17151        0.81258
H          4.13829        1.41610        0.02411
H          4.41800       -0.04706       -0.96795
H          0.18366       -2.53143       -0.31973
H         -0.59839        1.72234       -0.03520
