17
4-CHLORO-3-NITROBENZOTRIFLUORIDE.gamout	Energy:   -1232.7856465
N          7.24265        2.96629       -0.90191
O          6.91387        4.10461       -0.56537
O          8.32464        2.65182       -1.40908
C          6.28015        1.86364       -0.65226
C          6.83289        0.61460       -0.32887
C          4.87811        2.03400       -0.71749
C          5.99878       -0.46909       -0.03489
Cl         4.10943        3.52187       -1.19101
C          4.05141        0.92928       -0.43711
C          6.59117       -1.82718        0.28401
C          4.60055       -0.30886       -0.08739
F          6.67425       -2.59604       -0.83987
F          5.82308       -2.50894        1.17474
F          7.84149       -1.73404        0.80613
H          7.92501        0.51483       -0.30364
H          2.96367        1.05737       -0.49755
H          3.94113       -1.15611        0.14619
