13
4-CHLOROPHENOL.gamout	Energy:    -766.7740515
Cl        -2.27492        0.08151       -0.14479
O          3.63082        0.01130        0.45061
C          2.26817        0.07704        0.31392
C          1.56435        1.29497        0.26402
C          1.56665       -1.13949        0.22227
C          0.16780        1.29880        0.12353
C          0.17291       -1.13743        0.08215
C         -0.52189        0.08154        0.03319
H          2.10780        2.25010        0.33515
H          2.12721       -2.08299        0.26234
H         -0.38102        2.24822        0.08446
H         -0.37575       -2.08498        0.01038
H          4.00445        0.90905        0.50397
