31
4-DECANONE.gamout	Energy:    -468.0210041
C          0.81658        0.12341        0.22368
C          2.34918        0.07370        0.16983
C          2.89808       -0.62493       -1.08437
C          4.43264       -0.67831       -1.14891
C          4.96556       -1.37433       -2.40963
C          6.49094       -1.42753       -2.49898
C          6.98612       -2.11436       -3.76803
O          6.20157       -2.56661       -4.59372
C          8.49450       -2.21336       -3.97293
C          8.88460       -2.90604       -5.27946
C         10.40024       -3.00126       -5.49257
H          0.45857        0.63170        1.14044
H          0.38275       -0.89725        0.21326
H          0.40179        0.66991       -0.64787
H          2.73487       -0.44490        1.07454
H          2.75644        1.10718        0.21853
H          2.51321       -0.10656       -1.99048
H          2.49391       -1.66024       -1.13549
H          4.81939       -1.19700       -0.24324
H          4.83542        0.35823       -1.09909
H          4.58444       -0.86510       -3.31860
H          4.57452       -2.41045       -2.47425
H          6.93582       -1.95398       -1.62405
H          6.93348       -0.40617       -2.46556
H          8.92949       -2.73605       -3.09081
H          8.91499       -1.18345       -3.92064
H          8.40686       -2.35988       -6.11735
H          8.42396       -3.91393       -5.29170
H         10.86815       -1.99572       -5.51800
H         10.64213       -3.50550       -6.44857
H         10.88920       -3.57579       -4.67921
