17
4-ETHYLPYRIDINE.gamout	Energy:    -326.6905210
C          6.73991       -0.00998        0.24435
C          5.66720        0.14510       -0.85250
C          4.38374       -0.57932       -0.51394
C          3.34140        0.05143        0.19070
C          4.18925       -1.93054       -0.85662
C          2.18546       -0.67699        0.51408
N          2.00325       -1.96816        0.18701
C          2.99675       -2.57277       -0.48756
H          7.66595        0.52885       -0.03636
H          6.38356        0.39704        1.21087
H          6.99598       -1.07609        0.40235
H          6.06447       -0.24202       -1.81301
H          5.45329        1.22237       -1.00726
H          3.42576        1.10887        0.48349
H          4.96187       -2.48153       -1.41399
H          1.36073       -0.19231        1.06307
H          2.83228       -3.63045       -0.75338
