24
4-ETHYL-O-XYLENE.gamout	Energy:    -389.2378694
C          5.95387        3.79939        1.05315
C          6.54593        4.98270        1.84464
C          4.61726        3.33000        1.59262
C          4.55231        2.36262        2.61321
C          3.40416        3.86394        1.12080
C          3.33470        1.92467        3.16640
C          2.17918        3.44107        1.65988
C          3.33425        0.87747        4.25564
C          2.11873        2.47465        2.68129
C          0.79030        2.02858        3.24574
H          6.67345        2.95397        1.06815
H          5.83919        4.09523       -0.01045
H          7.52081        5.29333        1.42112
H          6.70313        4.71147        2.90731
H          5.86315        5.85487        1.81966
H          5.49039        1.92624        2.99171
H          3.41901        4.61735        0.31877
H          1.23940        3.86850        1.27447
H          2.77442       -0.03118        3.94883
H          2.85104        1.24683        5.18445
H          4.36685        0.57232        4.50624
H          0.72646        2.22396        4.33672
H          0.63434        0.93706        3.11092
H         -0.05434        2.55228        2.75891
