24
4-ETHYL-1-HEXENE.gamout	Energy:    -314.2418687
C          1.76521        0.55198        0.78959
C          1.14492        1.94601        0.93456
C          1.80232        2.82499        2.01982
C          3.23327        3.26832        1.58693
C          0.89303        4.02172        2.36316
C          4.24921        3.25779        2.69650
C          5.38287        2.53431        2.69891
C          1.38496        4.92717        3.49804
H          2.84040        0.59797        0.52512
H          1.25673       -0.03153       -0.00147
H          1.68181       -0.01807        1.73699
H          1.18902        2.48706       -0.03628
H          0.06596        1.83749        1.17215
H          1.90157        2.20038        2.93697
H          3.60110        2.61470        0.77114
H          3.16448        4.29050        1.15040
H         -0.10820        3.62397        2.62967
H          0.74400        4.62707        1.44128
H          4.02657        3.88759        3.57487
H          6.07462        2.56798        3.55077
H          5.65411        1.88616        1.85082
H          1.55493        4.34213        4.42457
H          0.64080        5.71335        3.72964
H          2.33276        5.44186        3.24374
