19
4-ETHYLCYCLOPENTENE.gamout	Energy:    -273.7601978
C          1.04850       -0.71355        0.44769
C          1.08778        0.63390        0.44080
C         -0.13086        1.22735       -0.23129
C         -1.11026        0.02101       -0.35275
C         -0.20326       -1.23878       -0.21888
C         -1.99355        0.02645       -1.60763
C         -2.96498        1.21238       -1.68663
H          1.83935       -1.36478        0.84619
H          1.91500        1.24212        0.83345
H         -0.56760        2.07397        0.33679
H          0.13858        1.63472       -1.23460
H         -1.77407        0.04654        0.53967
H          0.03761       -1.66994       -1.21911
H         -0.69389       -2.05178        0.35594
H         -2.56952       -0.92262       -1.64381
H         -1.33766        0.02153       -2.50622
H         -3.64793        1.22857       -0.81256
H         -3.58973        1.16107       -2.59997
H         -2.42274        2.17910       -1.70502
