24
4-ETHYL-TRANS-2-HEXENE.gamout	Energy:    -314.2524078
C          0.85830        1.55062       -0.66702
C          1.59620        2.28992        0.18594
C          1.77983        3.78740        0.14647
C          3.26615        4.17109       -0.06914
C          3.86253        3.74000       -1.41358
C          1.25261        4.45084        1.44505
C          0.68408        0.05850       -0.60885
C         -0.25564        4.31502        1.67950
H          0.32932        2.07280       -1.48533
H          2.12955        1.77055        1.00657
H          1.19214        4.18793       -0.71078
H          3.86277        3.74164        0.76508
H          3.35180        5.27327        0.03466
H          4.91986        4.05907       -1.49850
H          3.30558        4.19063       -2.25990
H          3.82887        2.64029       -1.54068
H          1.80997        4.02226        2.30627
H          1.52355        5.52712        1.41378
H          1.24182       -0.39122        0.23550
H         -0.38640       -0.21700       -0.49925
H          1.03185       -0.42413       -1.54695
H         -0.55799        4.81590        2.61992
H         -0.82975        4.77800        0.85159
H         -0.56597        3.25392        1.74714
