29
4-ETHYL-2-METHYLHEXANE.gamout	Energy:    -354.7617688
C          2.38035        3.63990        2.56374
C          2.27981        3.36061        4.08242
C          1.02628        4.06301        4.65481
C          2.34550        1.85575        4.42399
C          3.57646        3.03080        1.80207
C          0.83559        3.93622        6.17173
C          1.23255        0.99489        3.81421
C          4.92555        3.51990        2.34871
C          3.46526        3.33150        0.29878
H          2.39990        4.74250        2.41662
H          1.44258        3.29814        2.07513
H          3.15866        3.83417        4.57424
H          0.12017        3.68376        4.13466
H          1.09102        5.13903        4.38933
H          2.34116        1.73688        5.52671
H          3.32827        1.45913        4.09751
H          3.53858        1.92585        1.92321
H          0.60233        2.89819        6.47965
H          0.00026        4.57487        6.51715
H          1.74653        4.25042        6.72110
H          1.23417        1.04854        2.70825
H          0.22771        1.30707        4.16042
H          1.36409       -0.06721        4.09552
H          5.09697        3.20433        3.39547
H          4.97913        4.62794        2.31883
H          5.76635        3.12607        1.74449
H          3.49972        4.42486        0.11133
H          4.29935        2.86696       -0.26165
H          2.51752        2.94918       -0.12883
