24
4-ETHYL-M-XYLENE.gamout	Energy:    -389.2364729
C          6.67470        2.33568        2.85480
C          6.26103        2.49915        1.37668
C          4.76203        2.39552        1.16458
C          3.90282        3.52210        1.26494
C          4.18668        1.13974        0.88635
C          4.44352        4.90814        1.53240
C          2.51656        3.34079        1.09428
C          2.80411        0.97893        0.72176
C          1.94204        2.08502        0.82982
C          0.44547        1.93124        0.69057
H          6.21144        3.11114        3.49600
H          7.77436        2.40810        2.97210
H          6.34844        1.34958        3.23940
H          6.76364        1.71256        0.77531
H          6.64125        3.46869        0.99464
H          4.84586        0.26266        0.79248
H          5.13955        5.23369        0.73146
H          3.62184        5.64620        1.58587
H          5.00682        4.95893        2.48620
H          1.85447        4.21854        1.16771
H          2.38583       -0.01479        0.50155
H          0.18026        1.13759       -0.03501
H         -0.02828        2.87510        0.35922
H         -0.01405        1.65295        1.66269
