22
4-ETHYLCYCLOHEXENE.gamout	Energy:    -313.0509668
C          1.07856        1.10712        1.72755
C          0.94795        1.78355        3.06933
C          2.22542        1.09484        1.01691
C          2.14049        2.70827        3.36421
C          3.48582        2.04355        3.00626
C          3.50608        1.73871        1.49421
C          3.77376        0.77258        3.83306
C          3.82295        0.99372        5.34921
H          0.18906        0.59623        1.32664
H          0.84563        1.01018        3.86539
H         -0.00141        2.35743        3.11040
H          2.24606        0.59200        0.03710
H          2.12833        3.02380        4.42552
H          2.03460        3.63694        2.76493
H          4.29533        2.77241        3.22632
H          4.36700        1.07966        1.25138
H          3.68529        2.67471        0.91885
H          4.74873        0.36445        3.49429
H          3.02478       -0.00927        3.58778
H          4.54182        1.79690        5.61018
H          4.14082        0.07285        5.87495
H          2.83629        1.28456        5.75990
