22
4-HEPTANONE.gamout	Energy:    -350.1629249
C          2.01827        2.06324        1.92244
C          3.21644        1.15305        1.64986
C          4.45295        1.78417        1.00628
O          3.17410       -0.04929        1.88593
C          0.85339        1.39194        2.66026
C          5.09840        2.94828        1.78769
C          1.10759        1.22600        4.16285
C          6.36226        3.48575        1.10245
H          1.69192        2.44826        0.92991
H          2.37242        2.96688        2.46521
H          5.18552        0.96766        0.85496
H          4.14918        2.14912       -0.00064
H          0.67568        0.39718        2.20416
H         -0.06681        1.98826        2.49565
H          4.36744        3.77381        1.90976
H          5.34927        2.60202        2.81241
H          0.25627        0.72340        4.66087
H          2.01325        0.61516        4.34451
H          1.25488        2.20916        4.65582
H          6.79966        4.32749        1.67301
H          6.14028        3.85104        0.07922
H          7.13784        2.69871        1.01549
