19
4-HYDROXY-PHENYLACETIC_ACID.gamout	Energy:    -535.0090661
O         -1.42118       -1.38235        3.36310
O         -1.21418       -1.48601       -4.02786
O          0.72103       -1.16998       -2.89490
C         -1.31296       -0.35737       -0.71349
C         -1.28321        0.03449       -2.18045
C         -1.89973       -1.57091       -0.30697
C         -0.77239        0.48117        0.27907
C         -1.94714       -1.93774        1.04484
C         -0.81536        0.13071        1.63434
C         -1.40484       -1.08402        2.02464
C         -0.46062       -0.91970       -3.03766
H         -2.30553        0.09979       -2.60058
H         -0.81451        1.03208       -2.28349
H         -2.33231       -2.24815       -1.05865
H         -0.30577        1.43424       -0.00967
H         -2.41042       -2.89245        1.33729
H         -0.39472        0.78825        2.40671
H         -1.84992       -2.24535        3.50221
H         -0.61288       -2.07597       -4.53126
