14
4-METHYLPYRIDINE.gamout	Energy:    -287.4058486
C          5.60195        0.45246       -0.33002
C          4.36003       -0.39411       -0.19941
C          3.07362        0.17880       -0.21320
C          4.42638       -1.79495       -0.08056
C          1.94583       -0.65071       -0.11609
C          3.23897       -2.53864        0.01110
N          2.01243       -1.98904       -0.00551
H          5.47337        1.43665        0.15995
H          6.48280       -0.04698        0.11598
H          5.83195        0.64293       -1.39910
H          2.94903        1.26896       -0.29715
H          5.40035       -2.30654       -0.05709
H          0.93440       -0.21124       -0.12518
H          3.28057       -3.63671        0.10544
