19
4-METHYLTHIACYCLOHEXANE.gamout	Energy:    -633.8206784
C          0.62016        0.94500        0.85296
C          1.05636       -0.26646        1.69358
C          2.33043       -0.94547        1.14513
C         -0.08276       -1.29085        1.89146
C          2.13879       -1.66279       -0.19437
C         -0.48545       -2.04304        0.61950
S          0.89938       -3.01878       -0.09819
H          1.43693        1.68960        0.77612
H          0.33223        0.66520       -0.17928
H         -0.25304        1.44884        1.31192
H          1.31580        0.11288        2.70429
H          3.13117       -0.18477        1.03089
H          2.69090       -1.68375        1.89069
H         -0.97706       -0.76843        2.29325
H          0.22591       -2.03274        2.65664
H          3.07807       -2.14956       -0.51636
H          1.84533       -0.95715       -0.99885
H         -1.27861       -2.78294        0.83617
H         -0.88383       -1.35555       -0.15421
