26
4-METHYLHEPTANE.gamout	Energy:    -315.4786208
C          5.90061        2.13827        0.89779
C          4.60067        2.01236        1.72155
C          3.37036        2.37927        0.86161
C          4.45689        0.61941        2.35701
C          7.20553        2.00655        1.69778
C          2.06517        2.58940        1.64638
C          8.46040        2.25823        0.84997
C          0.89720        3.06902        0.77420
H          5.89915        3.12588        0.38758
H          5.88914        1.37977        0.08205
H          4.65791        2.76095        2.54596
H          3.21851        1.59347        0.08750
H          3.59816        3.31302        0.30326
H          3.53652        0.53797        2.96508
H          4.41292       -0.16300        1.57082
H          5.30668        0.38037        3.02390
H          7.18001        2.72244        2.54789
H          7.27184        0.99631        2.15203
H          2.25472        3.33294        2.45111
H          1.77473        1.65054        2.16222
H          8.52928        1.53494        0.01203
H          9.38278        2.15915        1.45439
H          8.45184        3.27676        0.41148
H          0.64239        2.32662       -0.00974
H         -0.01430        3.24002        1.37976
H          1.14410        4.02151        0.26248
