20
4-METHYLQUINOLINE.gamout	Energy:    -440.9468204
C         -3.90192       -2.13194        1.70982
C         -5.35373       -1.86250        2.01022
C         -3.47156       -3.43202        1.26883
C         -2.93079       -1.14589        1.84703
C         -2.06462       -3.62347        1.00083
C         -4.36090       -4.53474        1.08564
C         -1.56869       -1.43909        1.55541
N         -1.13827       -2.62377        1.14861
C         -1.61045       -4.90322        0.56400
C         -3.88553       -5.76707        0.65918
C         -2.50296       -5.95181        0.39735
H         -5.51918       -0.81886        2.33728
H         -5.98237       -2.04933        1.11583
H         -5.71926       -2.53901        2.80957
H         -3.21310       -0.13625        2.18157
H         -5.43326       -4.40699        1.28477
H         -0.80654       -0.64396        1.66924
H         -0.53546       -5.02255        0.36729
H         -4.58106       -6.60699        0.52253
H         -2.14191       -6.93440        0.06008
