18
4-METHYL-1-PENTENE.gamout	Energy:    -235.6770696
C          3.09332        1.44432        1.25008
C          4.37156        1.87563        2.01200
C          1.82245        2.04535        1.78425
C          4.60104        3.39084        1.92343
C          5.59180        1.10076        1.49412
C          0.95610        2.79264        1.07566
H          3.02021        0.33533        1.30913
H          3.20599        1.69573        0.17303
H          4.22296        1.61016        3.08323
H          1.60266        1.84023        2.84830
H          5.49432        3.69203        2.50433
H          4.76485        3.69965        0.86986
H          3.73252        3.95844        2.30771
H          6.51033        1.38451        2.04404
H          5.45802        0.00577        1.59872
H          5.76218        1.31938        0.41952
H          0.03848        3.19658        1.52677
H          1.14114        3.02216        0.01432
