19
4-METHYL-1-HEXYNE.gamout	Energy:    -273.7091354
C         -0.11731       19.81353        0.12538
C          0.91181       19.15953        0.02586
C          2.13048       18.36313       -0.10923
C          2.38278       17.82348       -1.54255
C          2.53946       18.97245       -2.54813
C          3.60727       16.89058       -1.56822
C          3.44628       15.59228       -0.76758
H         -1.02331       20.39244        0.22066
H          3.00713       18.97392        0.20411
H          2.07353       17.51665        0.60584
H          1.48912       17.22795       -1.83245
H          2.65664       18.58034       -3.57673
H          1.66028       19.64315       -2.53208
H          3.43740       19.58177       -2.31457
H          3.82240       16.63793       -2.62711
H          4.49709       17.45157       -1.20594
H          4.32861       14.93709       -0.89154
H          3.33162       15.78042        0.31791
H          2.55582       15.02553       -1.10669
