27
4-METHYL-3-HEPTANOL.gamout	Energy:    -390.6499208
C          1.87416        1.64663        4.20090
C          2.08875        2.36710        2.84432
C          3.48254        2.09748        2.23829
C          0.95627        2.02603        1.86019
C          2.75251        2.18938        5.33167
O          2.12305        0.23268        4.11654
C          3.92416        3.11869        1.17857
C          2.39380        1.62207        6.70959
C          5.31959        2.82954        0.60853
H          0.80752        1.80630        4.49779
H          2.01627        3.45520        3.07009
H          3.50287        1.07585        1.80210
H          4.23945        2.08605        3.04789
H          0.96077        0.94789        1.59026
H          1.05287        2.58675        0.91175
H         -0.03670        2.26502        2.29045
H          3.81494        1.96935        5.10184
H          2.64955        3.29443        5.34050
H          1.53141       -0.14854        3.44501
H          3.91185        4.13166        1.63585
H          3.18696        3.15152        0.34934
H          3.02333        2.07259        7.50068
H          2.53622        0.52530        6.74102
H          1.33443        1.83399        6.95919
H          6.08313        2.82283        1.41288
H          5.62002        3.59082       -0.13679
H          5.35420        1.83954        0.10962
