32
4-METHYL-4-ETHYLHEPTANE.gamout	Energy:    -394.0445385
C         -0.13489       39.75998        0.26824
C          1.39232       39.81319        0.12234
C          1.94917       41.23865        0.28011
C          3.47801       41.44882        0.09299
C          3.80675       42.94674        0.34908
C          4.23085       40.57876        1.13860
C          3.90036       41.04667       -1.33307
C          3.12479       43.99184       -0.55126
C          3.57126       45.42565       -0.23288
C          5.76508       40.66402        1.16391
H         -0.50663       38.72423        0.15747
H         -0.46119       40.12943        1.26239
H         -0.64025       40.38259       -0.49830
H          1.67212       39.40285       -0.87130
H          1.84630       39.13708        0.87550
H          1.67196       41.61670        1.28960
H          1.41630       41.88892       -0.44428
H          4.90455       43.08761        0.25709
H          3.55859       43.17321        1.40956
H          3.95212       39.51888        0.97033
H          3.83943       40.84175        2.14515
H          3.24641       41.51105       -2.09591
H          4.93976       41.35976       -1.55442
H          3.84946       39.94996       -1.47873
H          2.02235       43.93246       -0.44372
H          3.34422       43.77303       -1.61734
H          3.05937       46.15309       -0.89006
H          4.66393       45.55542       -0.37352
H          3.33700       45.69500        0.81725
H          6.16757       39.96031        1.91778
H          6.13225       41.67360        1.43175
H          6.21457       40.38997        0.18872
