24
4-METHYL-TRANS-3-HEPTENE.gamout	Energy:    -314.2534918
C          1.22208        1.10211        0.17259
C          2.06745       -0.02487       -0.45265
C          2.54558       -1.02852        0.56978
C          3.79866       -1.50081        0.78879
C          4.07023       -2.48065        1.91980
C          4.63514       -3.85587        1.50157
C          4.90814       -4.77880        2.69800
C          5.01267       -1.08139       -0.00494
H          0.82154        1.78129       -0.60470
H          1.82365        1.70599        0.88038
H          0.36160        0.68548        0.73422
H          2.92014        0.41323       -1.00828
H          1.44790       -0.54962       -1.21594
H          1.74838       -1.41618        1.23096
H          3.13230       -2.64208        2.49071
H          4.78840       -2.00925        2.63087
H          5.57707       -3.72685        0.92803
H          3.91753       -4.34337        0.80814
H          5.65797       -4.33479        3.38457
H          5.29932       -5.76073        2.36741
H          3.98632       -4.96596        3.28564
H          5.79507       -0.66969        0.66808
H          4.78575       -0.32393       -0.77538
H          5.47499       -1.95098       -0.51807
