16
4-METHYL-1,2-PENTADIENE.gamout	Energy:    -234.4345043
C          0.93240        0.55225       -0.29012
C          2.10405       -0.01918       -0.08773
C          3.27660       -0.58968        0.11727
C          4.13687       -0.42710        1.36039
C          4.33196       -1.78624        2.05793
C          5.48810        0.21722        1.00067
H          0.84818        1.53951       -0.77508
H         -0.00720        0.06100        0.01394
H          3.68317       -1.24828       -0.67487
H          3.59912        0.25075        2.05578
H          4.84441       -2.50439        1.38491
H          3.36076       -2.22846        2.34990
H          4.95209       -1.67738        2.96986
H          6.05023       -0.41534        0.28267
H          6.11565        0.34011        1.90532
H          5.34740        1.21222        0.53784
