20
4-METHYL_CYCLOHEXANONE.gamout	Energy:    -348.9639515
C          0.90536       -0.05496        0.11820
C          2.43908       -0.08424        0.01162
C          2.98681        0.95701       -0.98649
C          2.98703       -1.48151       -0.34361
C          2.69661        0.59338       -2.46052
C          3.14001       -0.82406       -2.79889
O          3.80530       -1.08682       -3.79457
C          2.69487       -1.88880       -1.80547
H          0.54979        0.95158        0.41136
H          0.54794       -0.77524        0.87931
H          0.40739       -0.31263       -0.83824
H          2.84187        0.18080        1.01216
H          4.08501        1.04297       -0.85137
H          2.56577        1.95832       -0.76329
H          2.56623       -2.24286        0.34366
H          4.08519       -1.48914       -0.18361
H          3.18739        1.29187       -3.16248
H          1.60093        0.64935       -2.64557
H          1.59838       -2.02271       -1.93706
H          3.18027       -2.84461       -2.07401
