24
4-METHYL-TRANS-2-HEPTENE.gamout	Energy:    -314.2525269
C          0.43806        1.85375        1.69611
C          1.95414        1.86842        1.47094
C          2.75644        1.55868        2.74135
C          4.29337        1.58438        2.56469
C          4.80456        2.97459        2.26964
C          4.98941        1.01452        3.81839
C          5.54471        3.33415        1.20147
C          6.09229        4.71088        0.93968
H         -0.11580        2.07158        0.76209
H          0.09894        0.86490        2.06714
H          0.13872        2.61113        2.44917
H          2.22313        1.12643        0.68805
H          2.26445        2.85623        1.06979
H          2.48109        2.28042        3.54334
H          2.46289        0.55673        3.12377
H          4.55189        0.93544        1.69793
H          4.55809        3.74488        3.02630
H          6.08922        1.00822        3.69985
H          4.65052       -0.02089        4.02032
H          4.74902        1.62799        4.71101
H          5.78254        2.55962        0.44932
H          7.20085        4.69619        0.86560
H          5.72187        5.11433       -0.02674
H          5.80952        5.42236        1.73968
