27
4-METHYLPHENANTHRENE.gamout	Energy:    -578.4463360
C          0.67820       -0.21323       -0.00002
C         -0.79299       -0.29160       -0.00001
C          1.26673        1.10808       -0.00002
C         -1.55933        0.93228       -0.00001
C          1.59342       -1.33132       -0.00002
C          0.45122        2.29099       -0.00002
C         -0.91108        2.20979       -0.00001
C          2.67193        1.28590       -0.00005
C         -1.55051       -1.50005       -0.00000
C          2.97596       -1.09409       -0.00000
C         -2.97638        0.89421        0.00001
C          3.52960        0.19905       -0.00001
C          1.18813       -2.78952        0.00001
C         -2.94418       -1.50876        0.00001
C         -3.67473       -0.30388        0.00002
H          0.96004        3.26705       -0.00006
H         -1.53350        3.11711       -0.00000
H          3.06675        2.31196       -0.00004
H         -1.04265       -2.46107       -0.00001
H          3.64490       -1.96617        0.00001
H         -3.51926        1.84999        0.00001
H          4.62008        0.34324       -0.00004
H          2.09334       -3.42260        0.00002
H          0.59672       -3.06133        0.89697
H          0.59667       -3.06143       -0.89690
H         -3.48341       -2.46794        0.00002
H         -4.77250       -0.31380        0.00003
