29
4-METHYLOCTANE.gamout	Energy:    -354.7637433
C          4.50677        0.31375        0.07213
C          3.17566       -0.12025       -0.55410
C          1.96159        0.16982        0.34302
C          0.62798       -0.31117       -0.24959
C         -0.63219        0.09180        0.54779
C         -1.91034       -0.29641       -0.22637
C         -3.22743        0.22219        0.37477
C         -4.45447       -0.07426       -0.49952
H          4.68027       -0.21088        1.03349
H          5.36268        0.08991       -0.59382
H          4.51810        1.40329        0.27967
H          3.03896        0.38826       -1.53267
H          3.21155       -1.20852       -0.77879
H          2.12692       -0.30651        1.33251
H          1.89991        1.26411        0.53588
H          0.53403        0.09113       -1.28108
H          0.65277       -1.41935       -0.35582
C         -0.62492       -0.49469        1.96902
H         -0.62099        1.20358        0.63543
H         -1.82383        0.08576       -1.26637
H         -1.95729       -1.40579       -0.31372
H         -3.38142       -0.22127        1.38003
H         -3.14128        1.31925        0.53375
H         -4.35685        0.39189       -1.50100
H         -4.58783       -1.16494       -0.65158
H         -5.38217        0.31445       -0.03616
H          0.26616       -0.17686        2.54204
H         -0.62646       -1.60432        1.93173
H         -1.51149       -0.17764        2.55011
