16
4-METHYLCYCLOPENTENE.gamout	Energy:    -234.4751967
C          0.51140        2.93089        1.59960
C          1.96690        2.53476        1.86312
C          2.61945        1.68174        0.73832
C          3.58788        0.79037        1.48458
C          3.35223        0.80393        2.81212
C          2.18897        1.70587        3.16030
H         -0.13087        2.03235        1.49106
H          0.10058        3.53931        2.42962
H          0.41607        3.52632        0.66989
H          2.57167        3.46213        1.96252
H          1.85665        1.06791        0.20316
H          3.10868        2.30846       -0.03555
H          4.35511        0.18146        0.98683
H          3.89947        0.20743        3.55554
H          1.28681        1.09934        3.41188
H          2.38311        2.34986        4.04262
