32
4-METHYL-3-ETHYLHEPTANE.gamout	Energy:    -394.0404015
C          0.27179       29.65505        0.71103
C          1.45064       30.58607        0.40719
C          1.01936       32.02023        0.06867
C          2.15268       33.05287       -0.10905
C          3.12926       32.76727       -1.29420
C          1.56147       34.47163       -0.20267
C          4.19888       31.68502       -0.96728
C          2.38019       32.46998       -2.60926
C          5.63928       32.11546       -1.27423
C          3.24441       32.47662       -3.87705
H          0.62258       28.63398        0.95377
H         -0.31621       30.03038        1.57199
H         -0.41747       29.57561       -0.15417
H          2.04578       30.16311       -0.42681
H          2.13211       30.61398        1.28438
H          0.36276       32.38896        0.88526
H          0.37872       32.01230       -0.83958
H          2.76839       33.02432        0.81833
H          3.68197       33.72149       -1.44974
H          2.36177       35.23495       -0.26170
H          0.94076       34.70291        0.68633
H          0.91195       34.59769       -1.09306
H          4.13549       31.41799        0.10628
H          3.97075       30.74930       -1.51952
H          1.87778       31.48300       -2.52187
H          1.56844       33.21602       -2.73763
H          6.35957       31.31122       -1.02790
H          5.76843       32.37195       -2.34329
H          5.91774       33.00978       -0.68185
H          2.61726       32.30090       -4.77170
H          3.75849       33.45001       -4.01607
H          4.02456       31.68976       -3.86677
