18
4-METHYL-TRANS-2-PENTENE.gamout	Energy:    -235.6813125
C          2.10385        1.79950        3.17679
C          2.37926        1.29963        1.77483
C          0.91260        1.89608        3.80020
C          3.11715        2.38163        0.95800
C          1.13831        0.79580        1.02806
C          0.71302        2.41145        5.19995
H          3.00171        2.12921        3.73279
H          3.08516        0.44077        1.87773
H          0.00070        1.57519        3.26736
H          2.46334        3.26215        0.79383
H          3.42306        1.99094       -0.03303
H          4.02868        2.73200        1.48105
H          1.41884        0.40740        0.03059
H          0.63221       -0.01906        1.58051
H          0.40578        1.61476        0.87507
H          0.03492        3.29214        5.21927
H          0.24050        1.64324        5.84935
H          1.67240        2.70855        5.66659
