24
4-METHYL-1-HEPTENE.gamout	Energy:    -314.2455515
C          0.81005        1.21092        0.84311
C          2.06075        1.12954        1.72844
C          3.34758        1.55315        1.00244
C          4.64280        1.44237        1.83732
C          5.88519        1.57955        0.91714
C          4.66907        2.46969        2.98070
C          7.20968        1.30680        1.57750
C          8.12462        0.41536        1.15142
H          0.91672        0.57996       -0.06316
H          0.62299        2.24995        0.50284
H         -0.09281        0.86905        1.38544
H          1.90833        1.75769        2.63117
H          2.18184        0.08914        2.10069
H          3.45939        0.92750        0.09020
H          3.24083        2.60063        0.63969
H          4.66795        0.42268        2.28393
H          5.88778        2.61752        0.50908
H          5.77002        0.90300        0.04503
H          3.78988        2.36424        3.64425
H          4.66426        3.50231        2.57384
H          5.56858        2.36146        3.61574
H          7.44775        1.90446        2.47469
H          7.96269       -0.20680        0.25598
H          9.07476        0.28007        1.68659
