21
4-METHYL-CIS-2-HEXENE.gamout	Energy:    -274.9633003
C          3.64335        2.64317        1.43113
C          4.95629        2.28633        0.70250
C          3.12097        1.45199        2.19991
C          3.80773        3.90165        2.32911
C          1.91924        0.84396        2.08116
C          0.78520        1.19288        1.15597
C          4.83081        3.78473        3.46724
H          2.89776        2.91371        0.65539
H          5.73558        1.94327        1.41241
H          4.79274        1.47061       -0.02631
H          5.35754        3.16407        0.15740
H          3.82272        1.02624        2.93831
H          2.81515        4.16170        2.75003
H          4.09698        4.74885        1.67009
H          1.73252       -0.02558        2.73654
H          1.01142        2.04130        0.48390
H          0.51368        0.31955        0.52499
H         -0.13147        1.44865        1.73036
H          4.88567        4.73273        4.03637
H          4.56435        2.98334        4.18428
H          5.84713        3.57178        3.08304
