23
4-PROPOXYPHENOL.gamout	Energy:    -500.2873732
O          1.31934        0.69415       -0.16591
O         -4.11833       -0.44970        0.12812
C          3.68336        0.33798       -0.23502
C          2.31565       -0.32453       -0.12479
C          0.00477        0.31522       -0.08477
C          4.82523       -0.68572       -0.21021
C         -0.94006        1.35908       -0.13716
C         -0.44219       -1.01325        0.04225
C         -2.30651        1.08659       -0.06513
C         -1.82117       -1.28355        0.11480
C         -2.75869       -0.24164        0.06193
H          3.71052        0.92731       -1.17410
H          3.79151        1.06283        0.59714
H          2.15417       -1.04077       -0.96383
H          2.22629       -0.89910        0.82620
H          4.74275       -1.40311       -1.05158
H          5.80868       -0.18537       -0.29347
H          4.82645       -1.27029        0.73216
H         -0.57088        2.38838       -0.23780
H          0.26378       -1.85150        0.08597
H         -3.04307        1.89913       -0.10672
H         -2.16022       -2.32622        0.21487
H         -4.29749       -1.40267        0.21201
