20
4-VINYLCYCLOHEXENE.gamout	Energy:    -311.8195532
C          1.01887        2.42091        1.38991
C          1.90433        2.12339        2.35839
C          3.40966        2.21641        2.27401
C          3.95461        2.76963        0.94966
C          4.05530        0.84145        2.58165
C          5.47881        2.96667        1.00415
C          5.54388        0.83236        2.33265
C          6.18442        1.79310        1.63580
H         -0.06040        2.29993        1.55614
H          1.32857        2.79618        0.40323
H          1.51664        1.74694        3.32298
H          3.74178        2.90552        3.08741
H          3.70463        2.05949        0.13207
H          3.45950        3.72838        0.69898
H          3.84827        0.56153        3.63677
H          3.56343        0.05129        1.96881
H          5.87341        3.13417       -0.02000
H          5.73206        3.89685        1.56404
H          6.12250       -0.00946        2.74671
H          7.27781        1.73024        1.51398
