24
5,5-DIMETHYL-TRANS-2-HEXENE.gamout	Energy:    -314.2536163
C         -0.03440       21.05387       -0.03382
C          1.50624       21.00615       -0.05441
C          2.03256       22.44461       -0.36047
C          2.02403       20.53951        1.31661
C          1.96253       20.02356       -1.14960
C          3.52679       22.60546       -0.47532
C          4.29539       23.35318        0.34364
C          5.77881       23.55726        0.20983
H         -0.45611       20.05582        0.19818
H         -0.43984       21.37100       -1.01524
H         -0.40526       21.76264        0.73318
H          1.56296       22.77063       -1.31577
H          1.65004       23.13019        0.42433
H          3.13036       20.51390        1.33746
H          1.65080       19.52490        1.55981
H          1.69066       21.22617        2.11999
H          1.53000       19.01671       -0.97967
H          1.63537       20.36624       -2.15145
H          3.06380       19.91500       -1.16896
H          4.01816       22.08865       -1.31963
H          3.80475       23.87721        1.18461
H          6.19763       23.00735       -0.65566
H          6.02015       24.63378        0.08004
H          6.31867       23.22808        1.12354
