18
5-AMINOLEVULINIC_ACID.gamout	Energy:    -476.0842159
O         -2.06533       -0.39205       -0.62992
O          2.90733        0.46500       -0.06904
O          2.41439       -1.57677        0.77270
N         -4.20728       -1.65187        0.73107
C         -0.37456       -0.92426        1.00532
C          0.59906       -0.04162        0.22757
C         -1.79114       -0.91058        0.44581
C         -2.85711       -1.65174        1.26594
C          2.03719       -0.49328        0.35884
H         -0.40031       -0.65969        2.08343
H         -0.01352       -1.97675        0.98577
H          0.52993        1.02519        0.51712
H          0.33439       -0.06088       -0.85211
H         -2.49195       -2.69969        1.37809
H         -2.86135       -1.24758        2.30078
H         -4.17730       -1.80596       -0.28419
H         -4.63939       -0.72933        0.85220
H          3.80684        0.08445        0.01713
