24
5-ETHYL-M-XYLENE.gamout	Energy:    -389.2382297
C          1.00492        4.24202        1.93781
C          1.75009        4.01350        0.60901
C          3.22492        3.71315        0.79972
C          3.67290        2.38592        0.96458
C          4.17190        4.75102        0.85329
C          5.02896        2.08827        1.18501
C          5.54070        4.49096        1.06955
C          5.50842        0.66506        1.36148
C          5.94785        3.15614        1.23510
C          6.54614        5.61928        1.09250
H         -0.06682        4.45388        1.75745
H          1.07603        3.34781        2.58801
H          1.43465        5.09699        2.49667
H          1.27431        3.17239        0.06341
H          1.63900        4.90952       -0.03660
H          2.94153        1.56478        0.91798
H          3.83706        5.79129        0.71879
H          6.25717        0.39911        0.58773
H          6.00110        0.52938        2.34647
H          4.67377       -0.05641        1.29280
H          7.01380        2.93924        1.40467
H          7.51298        5.29021        1.51600
H          6.73566        5.99675        0.06598
H          6.17941        6.47716        1.69032
