12
5-FLUOROURACIL.gamout	Energy:    -513.7250752
F         -2.46667       -0.86853       -0.00009
O         -1.57454        1.80222        0.00032
O          2.81585        0.35767        0.00012
N          0.60577        1.04604        0.00019
N          1.13177       -1.21853       -0.00010
C         -0.79536        0.85698        0.00019
C          1.62074        0.08977        0.00009
C         -1.15879       -0.56591       -0.00001
C         -0.21080       -1.54314       -0.00012
H          0.92058        2.01958        0.00030
H          1.84406       -1.94695       -0.00018
H         -0.47228       -2.60792       -0.00030
