17
5-HEXEN-2-ONE.gamout	Energy:    -309.6467238
O         -2.39226        0.72140        1.32035
C         -0.67971       -0.08749       -0.16521
C          0.33623        0.78009        0.59176
C         -2.09953       -0.00928        0.38228
C          1.73640        0.61953        0.06699
C         -3.14761       -0.88687       -0.29054
C          2.49248        1.60168       -0.45648
H         -0.71979        0.19445       -1.24149
H         -0.37437       -1.15853       -0.16981
H          0.29621        0.49532        1.66536
H          0.02363        1.84180        0.54737
H          2.16095       -0.40016        0.12424
H         -4.08963       -0.31761       -0.39514
H         -3.35927       -1.75363        0.36936
H         -2.82119       -1.27133       -1.27497
H          3.51159        1.40693       -0.81836
H          2.12335        2.63715       -0.53047
