22
5-METHYLINDAN.gamout	Energy:    -388.0333696
C         -1.71545        1.69381       -0.11350
C         -0.47059        0.83443       -0.05158
H         -1.67963        2.38840       -0.97837
H         -1.81714        2.32041        0.79673
H         -2.63097        1.08113       -0.20796
C         -0.54638       -0.57218       -0.11445
C          0.60967       -1.37572       -0.07117
C          1.86396       -0.76291        0.03483
C          0.80352        1.43726        0.05839
C          1.95698        0.64509        0.10055
C          3.41237        1.06090        0.22782
C          4.17323       -0.19646       -0.26221
H          3.64676        1.27262        1.29533
H          3.65759        1.97794       -0.34328
C          3.24696       -1.37832        0.11989
H          3.37696       -2.26819       -0.52702
H          3.44377       -1.70862        1.16491
H          5.19589       -0.28459        0.15435
H          4.26395       -0.15285       -1.36716
H          0.87773        2.53552        0.10474
H          0.52237       -2.47267       -0.12651
H         -1.53245       -1.04916       -0.20453
