24
5-METHYL-TRANS-2-HEPTENE.gamout	Energy:    -314.2494596
C          1.00796       -0.00662        0.25445
C          2.48100        0.03066       -0.04429
C          3.19417       -0.96932       -0.60297
C          4.67760       -0.94664       -0.86493
C          5.14338       -1.29433       -2.30291
C          4.67732       -0.27426       -3.36705
C          3.23029       -0.42732       -3.85643
C          6.67769       -1.41818       -2.32604
H          0.46714        0.81186       -0.26754
H          0.81150        0.13332        1.33918
H          0.55502       -0.96902       -0.05398
H          3.01287        0.96478        0.21469
H          2.66757       -1.90593       -0.86748
H          5.16286       -1.67729       -0.17669
H          5.08551        0.05018       -0.58714
H          4.71519       -2.28756       -2.57059
H          5.35092       -0.36093       -4.24531
H          4.83503        0.75331       -2.97167
H          3.05200       -1.44962       -4.24785
H          3.01302        0.28513       -4.67747
H          2.49832       -0.24402       -3.04809
H          7.14387       -0.45035       -2.04691
H          7.04175       -1.68899       -3.33572
H          7.04598       -2.18533       -1.61636
