21
5-METHYL-TRANS-2-HEXENE.gamout	Energy:    -274.9677473
C          0.69646        1.64927        1.63824
C          2.09901        1.02221        1.66198
C          2.54449        0.73093        3.10209
C          3.11218        1.92675        0.91780
C          4.48357        1.33102        0.73072
C          5.64412        1.90479        1.11015
C          7.01991        1.34386        0.87686
H          0.70154        2.63002        2.15783
H          0.33769        1.81836        0.60347
H         -0.04091        1.00129        2.15092
H          2.05185        0.05464        1.11294
H          1.82187        0.06833        3.61660
H          2.61726        1.67190        3.68590
H          3.53783        0.24388        3.12895
H          2.68435        2.16084       -0.08323
H          3.20143        2.89722        1.45327
H          4.52447        0.35653        0.20757
H          5.59279        2.88079        1.62741
H          7.63325        2.03355        0.25764
H          7.57408        1.21185        1.83086
H          6.98073        0.36508        0.36045
