24
5-METHYL-CIS-2-HEPTENE.gamout	Energy:    -314.2475650
C          1.05547       -0.34799       -0.49302
C          2.24961        0.22503        0.21782
C          2.80270        1.44687        0.04375
C          2.33673        2.55077       -0.87043
C          3.41980        3.23703       -1.74583
C          3.99367        2.32629       -2.85470
C          5.00758        1.26718       -2.39901
C          2.84011        4.51940       -2.36617
H          1.30513       -1.31779       -0.97444
H          0.65443        0.32570       -1.27210
H          0.23160       -0.56398        0.22119
H          2.71789       -0.43495        0.96810
H          3.67908        1.69492        0.66732
H          1.88490        3.34570       -0.23200
H          1.51853        2.19490       -1.52977
H          4.26033        3.53314       -1.07703
H          4.48470        2.97558       -3.61136
H          3.14661        1.83722       -3.38459
H          5.86599        1.74391       -1.88362
H          5.40948        0.70531       -3.26566
H          4.55898        0.53656       -1.70074
H          2.00692        4.27685       -3.05826
H          3.60894        5.06517       -2.94698
H          2.44544        5.21086       -1.59545
