14
5-METHYLFURFURAL.gamout	Energy:    -382.4218007
O          1.08746        1.08342        1.33898
O         -0.93319        2.33826        2.93620
C          1.76809        0.24414        0.51113
C          0.93760       -0.78618        0.09358
C         -0.19463        0.60271        1.46430
C         -0.32781       -0.55565        0.70742
C          3.18939        0.58331        0.23599
C         -1.15157        1.31127        2.29975
H          1.21783       -1.60607       -0.57629
H         -1.23889       -1.15748        0.61645
H          3.63672       -0.16370       -0.44353
H          3.27315        1.58457       -0.23325
H          3.78066        0.60871        1.17375
H         -2.16361        0.81148        2.31436
