21
5-METHYL-1-HEXENE.gamout	Energy:    -274.9613965
C          3.40097        2.40862        2.34345
C          2.09478        2.16134        1.56032
C          3.48518        3.78326        3.04131
C          2.19168        0.86676        0.73652
C          0.85880        2.12782        2.47261
C          4.78866        4.00833        3.75941
C          5.66823        4.98936        3.48821
H          3.53055        1.60054        3.09811
H          4.25992        2.31631        1.64622
H          1.97168        3.00872        0.84794
H          2.65375        3.86825        3.77555
H          3.33170        4.58876        2.29222
H          2.31942       -0.01653        1.39660
H          3.05270        0.89432        0.04012
H          1.27469        0.70524        0.13679
H          0.71544        3.07763        3.02197
H          0.94859        1.31228        3.21987
H         -0.06197        1.94570        1.88462
H          5.02768        3.29078        4.56647
H          6.60767        5.09277        4.05006
H          5.47461        5.72926        2.69491
