21
5-VINYLNORBORNENE.gamout	Energy:    -349.8782863
C         -0.95633        1.53218       -0.59124
C         -1.36323       -0.68326       -0.37369
C          0.44600        0.88360       -0.97612
C         -1.43208        0.57355        0.52678
C          0.15187       -0.64655       -0.77477
C         -1.90102        1.13377       -1.71504
C         -2.13846       -0.19274       -1.58836
C          1.58144        1.39445       -0.13485
C          2.68393        2.00975       -0.60463
H         -0.89385        2.60788       -0.35169
H         -1.69650       -1.64146        0.06449
H          0.66791        1.10410       -2.03792
H         -2.46001        0.79759        0.86833
H         -0.75198        0.53100        1.40050
H          0.77349       -1.05911        0.04382
H          0.36521       -1.23695       -1.68430
H         -2.21060        1.78555       -2.54218
H         -2.68033       -0.83869       -2.28918
H          1.48352        1.25027        0.95692
H          3.47190        2.36806        0.07297
H          2.83561        2.17525       -1.68337
