24
6-METHYL-CIS-3-HEPTENE.gamout	Energy:    -314.2504447
C          1.61042        0.44636       -1.14511
C          2.38561       -0.04378        0.09257
C          3.02617       -1.39195       -0.11416
C          4.33999       -1.70269       -0.04926
C          5.49540       -0.78295        0.24144
C          6.52641       -0.68866       -0.91251
C          5.88992       -0.10342       -2.17965
C          7.74723        0.13059       -0.47348
H          1.14663        1.43389       -0.95684
H          0.80095       -0.25994       -1.42108
H          2.28570        0.54370       -2.01757
H          1.68206       -0.10810        0.95298
H          3.14851        0.70644        0.37909
H          2.32631       -2.21029       -0.36047
H          4.61874       -2.75338       -0.24425
H          6.02674       -1.14384        1.14999
H          5.13667        0.23959        0.48042
H          6.86671       -1.72326       -1.14449
H          5.52425        0.92786       -1.99222
H          5.02779       -0.71088       -2.51362
H          6.62115       -0.05506       -3.00919
H          7.44430        1.16285       -0.20058
H          8.49585        0.20439       -1.28627
H          8.24726       -0.31754        0.40784
