24
6-METHYL-1-HEPTENE.gamout	Energy:    -314.2454902
C          3.48869        1.84390        2.28020
C          4.66128        1.15526        2.99417
C          2.10305        1.21985        2.54008
C          6.04265        1.78861        2.69898
C          1.67731        1.33385        4.01182
C          1.04884        1.85348        1.62043
C          6.48012        1.66889        1.26392
C          7.55478        0.98328        0.83252
H          3.46265        2.91782        2.57589
H          3.66947        1.83276        1.18536
H          4.49945        1.18357        4.09113
H          4.68585        0.08180        2.70780
H          2.17036        0.13712        2.28495
H          6.80763        1.32512        3.35453
H          5.99690        2.86603        2.97806
H          1.62777        2.39931        4.31946
H          2.38095        0.81800        4.69215
H          0.67518        0.88990        4.17203
H          0.05415        1.39000        1.76646
H          0.94931        2.93907        1.83000
H          1.32332        1.74091        0.55301
H          5.85637        2.18971        0.51603
H          8.21796        0.45205        1.53407
H          7.80967        0.93453       -0.23581
