18
8-HYDROXYQUINOLINE.gamout	Energy:    -476.8468242
C         -3.50696       -3.42691        1.27694
C         -2.10709       -3.61764        1.00921
C         -4.39950       -4.52676        1.09543
C         -3.88671       -2.12095        1.71137
C         -1.62498       -4.90010        0.56615
N         -1.16760       -2.63835        1.14866
C         -2.51987       -5.95515        0.39812
O         -0.29892       -5.02410        0.32838
C         -3.90215       -5.75353        0.66625
C         -2.92177       -1.13186        1.84979
C         -1.56249       -1.43786        1.55476
H         -5.47138       -4.39340        1.29681
H         -4.94448       -1.91018        1.93331
H         -2.14829       -6.93421        0.05953
H          0.07514       -4.12696        0.52987
H         -4.59515       -6.59862        0.52789
H         -3.19158       -0.11972        2.18259
H         -0.78380       -0.65982        1.66055
