20
8-METHYLQUINOLINE.gamout	Energy:    -440.9471424
C         -1.61681       -4.90884        0.56242
C         -0.14958       -5.09417        0.28565
C         -2.08735       -3.62158        1.00478
C         -2.54612       -5.93491        0.40809
C         -3.49161       -3.42361        1.27535
N         -1.17159       -2.61529        1.15540
C         -3.92945       -5.74138        0.67380
C         -4.40047       -4.51020        1.10024
C         -3.89369       -2.12843        1.71030
C         -1.58949       -1.42505        1.56225
C         -2.94961       -1.12472        1.85619
H          0.07353       -6.12537       -0.04681
H          0.18932       -4.38030       -0.49006
H          0.44524       -4.86542        1.19103
H         -2.20111       -6.92459        0.07061
H         -4.62699       -6.58041        0.53790
H         -5.46822       -4.35288        1.30793
H         -4.95626       -1.93921        1.92721
H         -0.81997       -0.63611        1.67255
H         -3.23674       -0.11714        2.19068
