26
A-PINENE.gamout	Energy:    -390.3894343
C         -3.33331        2.62683        0.87700
C         -2.21218        2.08945       -0.10624
C         -2.91215        0.69219        0.09548
C         -2.10955        2.66033       -1.51986
H         -3.09024        2.76762       -2.01543
H         -1.47806        1.99984       -2.14758
H         -1.62392        3.65746       -1.50597
C         -0.81986        2.14890        0.54131
H         -0.07682        1.60986       -0.08096
H         -0.78398        1.71361        1.55606
H         -0.48535        3.20316        0.61738
C         -4.64025        2.81791        0.12627
C         -4.16727        0.55820       -0.79159
C         -5.03495        1.79305       -0.66423
H         -4.73483       -0.35226       -0.49296
H         -3.88431        0.38795       -1.85495
C         -3.35754        1.19464        1.49955
H         -2.26920       -0.20886        0.03363
H         -2.58835        1.04268        2.27517
H         -4.33406        0.84015        1.87686
H         -3.07620        3.49057        1.52040
H         -5.96902        1.85090       -1.24253
C         -5.38346        4.11146        0.29268
H         -5.65443        4.29090        1.35650
H         -6.31208        4.13462       -0.30797
H         -4.74873        4.97160       -0.01202
