7
AC-1.gamout	Energy:    -228.3828392
C         -4.72811        1.27835        0.00146
C         -4.72299       -0.29060        0.01196
H         -5.48618       -0.67040        0.72315
H         -3.72526       -0.69656        0.27592
H         -5.00579       -0.66504       -0.99606
O         -3.59797        1.84403        0.09886
O         -5.87130        1.81331       -0.11538
