19
ACETANILIDE.gamout	Energy:    -439.9758518
C          6.47273        1.86977       -0.66233
C          6.88335        0.57497       -0.30755
C          5.10262        2.15448       -0.75923
C          1.60590       -2.50107        0.46132
C          2.26121       -1.17410        0.09689
C          4.13483        1.16973       -0.50850
C          4.54925       -0.13219       -0.15218
N          3.64589       -1.18491        0.11713
C          5.93013       -0.41844       -0.05459
O          1.58797       -0.18232       -0.18181
H          7.21894        2.65100       -0.86163
H          7.95522        0.33862       -0.22792
H          4.77736        3.16882       -1.03684
H          2.31166       -3.34212        0.59993
H          1.03039       -2.35485        1.39460
H          0.88855       -2.75408       -0.33964
H          3.06518        1.38747       -0.58246
H          4.08122       -2.07319        0.36301
H          6.25640       -1.43198        0.22294
