7
ACETYL_CHLORIDE.gamout	Energy:    -613.2575962
C          2.10289        2.40377        0.92570
C          1.77878        0.93808        0.95937
Cl        -0.04026        0.64478        0.84968
O          2.52884        0.01297        1.04451
H          1.59733        2.91446        1.76764
H          1.71005        2.84968       -0.00811
H          3.19678        2.54046        0.99031
