13
ACETIC_ANHYDRIDE.gamout	Energy:    -381.4798242
O          3.27237        1.62616        1.59642
C          2.02268        2.09737        1.15739
C          4.48183        2.08414        1.04396
C          1.00514        1.94656        2.25939
O          1.82561        2.50453        0.04017
C          5.54959        1.03493        1.21928
O          4.61441        3.17977        0.55950
H          1.26582        2.61970        3.10017
H          0.00409        2.19954        1.87351
H          1.01477        0.91196        2.65297
H          6.52361        1.44349        0.90373
H          5.59494        0.70558        2.27510
H          5.29902        0.14500        0.60842
