10
ACETONE.gamout	Energy:    -193.0242250
C          0.00000        0.00001        0.18176
O         -0.00000       -0.00003        1.40642
C          0.00000        1.29408       -0.61536
C         -0.00000       -1.29405       -0.61533
H         -0.00001        2.15940        0.06936
H          0.00001       -2.15933        0.06945
H          0.88938        1.33993       -1.27726
H         -0.88938        1.33988       -1.27725
H         -0.88939       -1.33993       -1.27721
H          0.88938       -1.33989       -1.27721
