15
ACETYLACETONE.gamout	Energy:    -345.5648422
C          2.44670        1.67754        0.97594
C          1.39284        2.34867        1.87616
C          3.66087        1.29475        1.84164
C          0.39591        1.42310        2.53310
O          1.40781        3.55816        2.06071
C          4.73279        2.34930        1.98023
O          3.71142        0.20755        2.40097
H          2.73107        2.40625        0.19504
H          2.04885        0.74848        0.52897
H          0.92516        0.56696        2.99959
H         -0.27123        0.99112        1.75825
H         -0.20434        1.97115        3.27853
H          4.27207        3.32477        2.23903
H          5.23269        2.49412        0.99973
H          5.47733        2.05007        2.73693
