8
ACETIC_ACID.gamout	Energy:    -228.9413009
C          1.30338       -0.84059        1.45651
C          2.71280       -1.37036        1.57372
O          3.01803       -2.52724        1.80157
H          1.28533        0.24232        1.24636
H          0.78104       -1.39037        0.65053
H          0.76339       -1.05062        2.39939
O          3.64831       -0.39197        1.39410
H          4.52334       -0.82588        1.48738
