23
ACRIDINE.gamout	Energy:    -555.1897894
N         -0.00003        1.35416        0.00000
C         -1.21561       -0.78363        0.00000
C          1.21555       -0.78316       -0.00000
C         -1.15036        0.66261        0.00000
C          1.15043        0.66305       -0.00000
C          0.00010       -1.48908       -0.00000
C         -2.50455       -1.40140        0.00000
C          2.50431       -1.40094        0.00000
C         -2.35184        1.42161       -0.00000
C          2.35209        1.42180       -0.00000
C         -3.65470       -0.63558       -0.00000
C          3.65476       -0.63560        0.00000
C         -3.57705        0.79401       -0.00000
C          3.57692        0.79382       -0.00000
H          0.00032       -2.58964       -0.00000
H         -2.53096       -2.49640       -0.00000
H          2.53029       -2.49584       -0.00000
H         -2.17891        2.50217        0.00000
H          2.18150        2.50277        0.00000
H         -4.63712       -1.12767       -0.00000
H          4.63694       -1.12801       -0.00000
H         -4.48918        1.40179        0.00000
H          4.48826        1.40253       -0.00000
