8
ACROLEIN.gamout	Energy:    -191.7797166
C          0.83323        1.17305        1.59615
C          1.77168        2.23059        1.12848
C          2.83028        1.95053        0.33961
O          0.92884       -0.01535        1.31958
H         -0.01046        1.53852        2.24888
H          1.56180        3.26172        1.45791
H          3.52020        2.73427       -0.00306
H          3.02164        0.91372        0.02195
