10
ACRYLAMIDE.gamout	Energy:    -247.1383357
C          3.17400        1.97849        0.13131
C          1.67672        2.08187        0.19687
N          1.01681        0.87928        0.07882
O          1.07517        3.14762        0.34492
C          3.94790        3.07516        0.21936
H          3.62486        0.97903        0.00910
H         -0.00124        0.87480        0.12288
H          1.50183       -0.00594       -0.04788
H          3.47933        4.06366        0.34171
H          5.04402        3.01338        0.17404
