7
ACRYLONITRILE.gamout	Energy:    -170.7097393
C          1.13896        0.84475        0.15635
C          2.56383        0.96475        0.06847
C          3.21029        2.15067        0.06538
N         -0.02589        0.71702        0.22714
H          3.12059        0.01553        0.00171
H          4.30565        2.18718       -0.00388
H          2.66788        3.10410        0.13133
