27
ACYCLOVIR.gamout	Energy:    -810.4091674
O         -2.53384        0.44643       -0.35570
O          3.77951        0.73660        1.15893
O         -5.38043       -1.69390        0.17576
N         -0.38609        1.14003       -0.87238
N          1.27905        2.34746        0.06334
N          0.47982       -1.11662       -0.62113
N          2.60328       -1.11276        0.43220
N          1.56657       -3.12414       -0.21525
C          0.57018        0.22754       -0.47267
C         -1.67109        0.80359       -1.41760
C          1.59812        1.00027        0.10123
C          0.09645        2.39566       -0.51015
C          2.75995        0.31679        0.62024
C         -3.62295       -0.38177       -0.74123
C          1.53225       -1.75803       -0.14200
C         -4.26741       -0.87978        0.54508
H         -1.54118       -0.05141       -2.11609
H         -2.06258        1.68504       -1.97535
H         -0.48024        3.30481       -0.71632
H         -3.26420       -1.24456       -1.34797
H         -4.36840        0.18110       -1.34962
H          3.39620       -1.64950        0.79036
H         -3.51139       -1.44878        1.13078
H         -4.57975       -0.00147        1.15292
H          0.76689       -3.59403       -0.63055
H          2.32944       -3.68294        0.15159
H         -5.82506       -2.00807        0.98021
