26
ADAMANTANE.gamout	Energy:    -390.4538058
C          1.10122       -0.91676        0.57543
C         -1.14344        0.14099        1.02885
C         -0.55415       -0.61705       -1.30356
C          0.59486        1.39280       -0.30119
C         -0.04189       -0.77439        1.59880
C          0.54711       -1.52815       -0.72596
C          1.69076        0.47473        0.27448
C         -1.69126       -0.47351       -0.27368
C         -0.54570        1.52849        0.72555
C          0.04203        0.77274       -1.59873
H          1.89320       -1.57472        0.98975
H         -1.96367        0.24191        1.76929
H         -0.95009       -1.06068       -2.24021
H          1.02278        2.39342       -0.51719
H         -0.46361       -1.77140        1.83505
H          0.34828       -0.34824        2.54422
H          0.13541       -2.53720       -0.52389
H          1.36230       -1.64786       -1.46695
H          2.52585        0.38467       -0.44872
H          2.10522        0.91951        1.20071
H         -2.49589        0.16773       -0.68556
H         -2.13820       -1.46582       -0.06518
H         -0.16190        1.98549        1.65889
H         -1.33316        2.20064        0.32994
H          0.85224        0.68266       -2.34915
H         -0.73585        1.43225       -2.03196
