20
ADIPIC_ACID.gamout	Energy:    -535.2536058
C          5.93068        5.60176       -3.79694
C          5.73915        4.86477       -2.46382
C          6.92064        3.92194       -2.14896
C          4.76546        6.54381       -4.13788
C          6.78740        3.20335       -0.82154
C          5.08004        7.47321       -5.29556
O          6.76242        4.07696        0.22922
O          6.70919        1.99768       -0.66390
O          3.97265        7.75286       -6.04199
O          6.17178        7.95324       -5.54584
H          6.86522        6.19832       -3.76466
H          6.05943        4.86986       -4.62206
H          5.63640        5.60412       -1.64333
H          4.79681        4.27661       -2.48082
H          7.86046        4.51345       -2.12649
H          7.02541        3.14513       -2.92865
H          4.54389        7.20240       -3.26840
H          3.82848        5.99611       -4.35702
H          6.66733        3.53399        1.04004
H          4.25932        8.37660       -6.74286
