24
ALFA-D-FRUCTOFURANOSE.gamout	Energy:    -686.7312580
C         -0.72179        1.16863       -0.32193
O          0.53470        1.80176       -0.64239
C          1.63650        1.05342       -0.19889
C         -0.40464       -0.09586        0.50215
C          1.09309        0.04573        0.86763
C          2.66303        2.05256        0.34622
C         -1.57243        2.20673        0.41435
H         -1.23148        0.86006       -1.25751
O         -2.86089        1.63476        0.63653
H         -1.63161        3.12055       -0.21744
H         -1.07215        2.47788        1.37251
H         -3.44613        2.30800        1.02040
O          3.76293        1.28529        0.87292
H          2.19109        2.67228        1.13632
H          2.98044        2.70320       -0.49368
H          4.52598        1.86895        1.02448
O          2.17372        0.34393       -1.31147
H          3.05226        0.01834       -1.03641
O          1.17982        0.52675        2.20509
H          2.12747        0.62920        2.41593
O         -0.67848       -1.23109       -0.31396
H         -0.58398       -2.03564        0.22454
H         -1.00145       -0.12079        1.43830
H          1.60955       -0.93178        0.75288
