24
ALFA_D-FRUCTOPYRANOSE.gamout	Energy:    -686.7382878
C         -2.13218        2.42640       -1.93279
O         -2.39869        1.01349       -1.91705
C         -1.29051        2.83058       -3.14548
C         -1.41474        2.83036       -0.62889
H         -3.12175        2.92373       -1.97938
O          0.02905        2.25947       -3.06372
H         -1.24554        3.93332       -3.23491
H         -1.72839        2.41038       -4.06806
C          0.02472        2.29053       -0.65570
O         -2.09188        2.32835        0.52687
H         -1.39156        3.93336       -0.53963
H         -0.03604        1.17579       -0.69071
O          0.78558        2.68874        0.48182
C          0.80432        2.66862       -1.93702
O          1.98293        1.88390       -2.03201
C          1.29345        4.13049       -2.03728
H         -1.59741        0.56688       -2.25518
H         -2.41821        1.43738        0.27930
H          0.22759        2.52985        1.26811
O          0.22690        5.08466       -1.98861
H          1.85050        4.18733       -2.99541
H          1.99979        4.28658       -1.19568
H          0.60910        5.97820       -1.96635
H          2.30762        1.73645       -1.12347
