10
ALLYL_ALCOHOL.gamout	Energy:    -192.9843523
C          0.06847       -0.74751        1.11805
C          0.40957       -0.19552        2.48148
C          1.24363        0.83061        2.72099
O         -0.85118       -1.83055        1.29299
H          0.99600       -1.09589        0.60427
H         -0.38024        0.05461        0.48473
H         -0.09309       -0.71023        3.31772
H          1.76182        1.36677        1.90960
H          1.44038        1.17457        3.74597
H         -1.08078       -2.19650        0.42195
