19
ALPHA-METHYLSTYRENE.gamout	Energy:    -348.7186239
C          3.93286        1.80768        1.82350
C          2.65145        2.10000        2.31668
C          4.12259        0.72482        0.95674
C          1.52475        1.32067        1.95917
C          1.74422        0.23004        1.08101
C          0.17286        1.64999        2.49510
C          3.01956       -0.06414        0.58734
C         -0.94162        0.94090        2.19011
C          0.05831        2.83779        3.42393
H          4.78909        2.43172        2.11914
H          2.53298        2.95423        2.99401
H          5.12397        0.49307        0.56861
H          0.89786       -0.39981        0.77979
H          3.15992       -0.91637       -0.09292
H         -1.91766        1.22418        2.61151
H         -0.93542        0.06740        1.52520
H          0.68878        2.70741        4.32807
H          0.39269        3.77280        2.92817
H         -0.98731        2.97838        3.75215
