24
ALPHA_DGLUCOSE.gamout	Energy:    -686.7316956
O          4.22960        2.70064       -0.19558
O          3.15972        1.71458       -2.49429
O          2.04859       -0.87127       -2.57137
O          0.25718        1.14235       -2.05480
O          2.03878        2.25810        0.21979
O         -0.41024        0.07543        1.80324
C          3.29960        1.65590       -0.05499
C          3.30035        0.86218       -1.37322
C          2.15389       -0.16892       -1.34813
C          0.79461        0.44119       -0.92838
C          0.92590        1.36110        0.30590
C          0.90977        0.59951        1.64625
H          4.08759        3.33477        0.53151
H          3.59406        2.56004       -2.26789
H          1.69967       -0.22827       -3.22128
H         -0.71265        1.12190       -2.00090
H         -0.47411       -0.38392        2.65681
H          3.58839        0.98085        0.78943
H          4.26493        0.30299       -1.42930
H          2.42311       -0.92756       -0.58245
H          0.12570       -0.39833       -0.64655
H          0.03770        2.02216        0.31758
H          1.15934        1.32937        2.44667
H          1.66454       -0.21967        1.67863
