26
ALPHA-PINENE.gamout	Energy:    -390.3895407
C         -0.84366        0.65420        1.79229
C         -2.41352        0.98475       -0.10854
C          2.57025        1.25563       -0.29571
C         -0.45694       -0.53832       -1.56381
C          0.28170       -1.82433        0.46762
C          0.07121        0.67905       -0.73629
C         -0.92158       -1.12724       -0.19941
C          1.43021        0.28460       -0.17698
C          1.51245       -0.94383        0.38604
C         -1.07424        0.35720        0.31008
H          0.07088        1.68611       -1.19721
H         -1.82900       -1.76488       -0.17991
H         -1.29584       -0.28558       -2.23425
H          0.30342       -1.10890       -2.12776
H          0.05005       -2.07651        1.52699
H          0.46975       -2.80376       -0.02844
H          2.46264       -1.31496        0.79916
H         -0.88819        1.74575        1.98290
H         -1.64219        0.18330        2.39979
H          0.13063        0.28478        2.15490
H         -2.67544        0.79302       -1.16415
H         -3.24000        0.59369        0.51850
H         -2.38034        2.08357        0.03386
H          2.31446        2.22621        0.18172
H          3.49318        0.87161        0.17864
H          2.79880        1.48750       -1.35992
