34
AMOBARBITAL.gamout	Energy:    -764.7618684
O          0.12214       -1.65011       -1.99125
O          0.37085        1.08140        1.90324
O          3.43834       -2.21026        1.09959
N          1.80627       -1.83871       -0.48118
N          1.93198       -0.50434        1.43309
C          0.26574        0.11624       -0.32257
C         -1.27669        0.26454       -0.33718
C         -2.06540       -0.73669        0.52802
C          0.94960        1.29875       -1.12692
C         -3.59626       -0.67598        0.30627
C          0.68098       -1.19356       -1.00185
C          0.81653        0.27006        1.10268
C          0.51589        1.45369       -2.58778
C         -4.22561        0.62800        0.82021
C         -4.29782       -1.89322        0.93029
C          2.47603       -1.56449        0.70997
H         -1.50337        1.30199       -0.02726
H         -1.60028        0.15287       -1.38897
H         -1.73148       -1.77004        0.29774
H         -1.84293       -0.55817        1.60070
H          2.04918        1.16421       -1.07383
H          0.71944        2.22443       -0.56037
H         -3.76639       -0.72575       -0.79292
H          0.72385        0.54649       -3.18415
H         -0.56360        1.67548       -2.67011
H          1.06835        2.29766       -3.04085
H         -3.74237        1.52738        0.39474
H         -4.16267        0.69549        1.92671
H         -5.29775        0.67204        0.54958
H         -4.19720       -1.89517        2.03610
H         -5.38175       -1.89536        0.69927
H         -3.86804       -2.83978        0.54882
H          2.13063       -2.66554       -0.98728
H          2.36453       -0.32605        2.34290
