23
AMPHETAMINE.gamout	Energy:    -405.2635398
N         -3.58245       -0.55896        0.14498
C         -2.25555       -0.17086       -0.35897
C         -1.25011       -0.33525        0.80701
C          0.20118       -0.15555        0.42621
C         -2.31991        1.26558       -0.88127
C          0.90038       -1.18458       -0.23811
C          0.89614        1.03198        0.72779
C          2.24709       -1.03275       -0.59788
C          2.24158        1.19245        0.36671
C          2.92188        0.16041       -0.29642
H         -1.90999       -0.82832       -1.19566
H         -1.38994       -1.35426        1.22664
H         -1.53499        0.37862        1.60628
H         -1.34102        1.58137       -1.28932
H         -2.60524        1.95754       -0.06449
H         -3.07120        1.35571       -1.69091
H          0.38331       -2.12789       -0.46590
H          0.37783        1.84082        1.26166
H         -3.57516       -1.53296        0.46552
H         -4.29622       -0.48576       -0.58777
H          2.77190       -1.85042       -1.11198
H          2.76782        2.12665        0.61058
H          3.97515        0.28325       -0.57460
