14
ANILINE.gamout	Energy:    -287.4152350
C         -0.37646        1.03577       -0.44058
C         -0.98897       -0.22546       -0.63148
C          0.96426        1.12433       -0.04205
C          1.72614       -0.03545        0.17642
C          1.12484       -1.29023       -0.01434
C         -0.21535       -1.39013       -0.41246
N         -2.33912       -0.31765       -0.97628
H         -0.96483        1.95109       -0.60448
H          1.42099        2.11538        0.10025
H          2.77581        0.03902        0.48947
H          1.70809       -2.20888        0.14852
H         -0.67675       -2.37864       -0.55614
H         -2.76313        0.50357       -1.40612
H         -2.65116       -1.19327       -1.39435
