24
ANTHRAQUINONE.gamout	Energy:    -688.3135655
C         -0.66562       -1.27590        0.10606
C         -2.07751       -0.81857       -0.01699
C          0.38179       -0.22033        0.09466
O         -0.37862       -2.47351        0.21128
C         -1.36254        1.60757       -0.14859
C          0.04869        1.14969       -0.02569
O         -1.64949        2.80523       -0.25401
C         -2.40925        0.55190       -0.13727
C         -3.09539       -1.78268       -0.01087
C          1.06584        2.11445       -0.03207
C         -3.75316        0.93860       -0.24892
C          1.72574       -0.60650        0.20610
C         -4.43174       -1.39159       -0.12264
C         -4.76270       -0.02765       -0.24176
C          2.73501        0.36004        0.19867
C          2.40228        1.72355        0.07950
H         -2.76458       -2.82185        0.08571
H          0.73438        3.15343       -0.12869
H         -3.93529        2.01500       -0.33784
H          1.90741       -1.68298        0.29497
H         -5.22359       -2.15300       -0.11678
H         -5.81326        0.28184       -0.32976
H          3.78642        0.05208        0.28647
H          3.19299        2.48554        0.07331
