30
APIGENIN.gamout	Energy:    -953.1446071
O         -0.04946        0.68099       -0.01381
O         -4.13424       -1.85733        0.05609
O         -1.86139       -3.01197        0.08342
O         -4.19916        2.95210       -0.05580
O          6.23698        0.80627       -0.02970
C         -2.06641       -0.64514        0.02366
C         -1.42303        0.61370       -0.00814
C          0.71441       -0.45169        0.01710
C          2.15379       -0.14716        0.00677
C         -1.29475       -1.87774        0.05455
C          0.14348       -1.70466        0.05330
C         -3.49969       -0.67875        0.02706
C         -2.12703        1.82327       -0.03509
C         -3.53502        1.75800       -0.02982
C         -4.22106        0.52673        0.00077
C          3.12040       -1.17778        0.02845
C          2.60573        1.19281       -0.02825
C          4.48511       -0.88625        0.01661
C          3.96716        1.49299       -0.04163
C          4.91698        0.45426       -0.01763
H          0.77144       -2.60535        0.07807
H         -1.61207        2.79027       -0.05927
H         -5.31847        0.48186        0.00492
H          2.80699       -2.22878        0.05651
H          1.87448        2.00822       -0.04620
H          5.21841       -1.70458        0.03529
H          4.32272        2.53207       -0.07124
H         -3.39241       -2.56980        0.07329
H         -5.16116        2.79711       -0.04944
H          6.79758        0.00996       -0.00598
