29
AZELAIC_ACID.gamout	Energy:    -653.1093297
C          1.50072        1.28795        3.00082
C          2.54142        1.93797        2.06440
C          3.97510        1.78037        2.59118
C          0.06927        1.41833        2.52238
C          5.04080        2.41144        1.68255
O         -0.11801        0.81684        1.30944
O         -0.83856        1.97566        3.11473
C          6.47053        2.22981        2.21222
C          7.54379        2.83349        1.29642
C          8.97000        2.62651        1.84478
C         10.02694        3.17565        0.90848
O         10.78879        4.14245        1.49796
O         10.20178        2.82418       -0.24574
H          1.54656        1.73477        4.01126
H          1.72409        0.20376        3.09832
H          2.45967        1.48688        1.05446
H          2.30286        3.01662        1.94678
H          4.04768        2.22370        3.60866
H          4.20046        0.69773        2.71463
H          4.97013        1.96536        0.66667
H          4.82732        3.49572        1.55418
H         -1.06311        0.94200        1.08074
H          6.67774        1.14397        2.33884
H          6.55068        2.67603        3.22793
H          7.35802        3.92066        1.16211
H          7.47834        2.37877        0.28669
H          9.17185        1.53909        1.94769
H          9.08177        3.08630        2.84472
H         11.43595        4.43889        0.82257
