24
AZOBENZENE.gamout	Energy:    -572.3747044
C          6.13441        1.69481       -0.42179
C          6.71361        0.40981       -0.36281
C          4.72661        1.82760       -0.43801
N          7.04174        2.78513       -0.46113
C          5.89674       -0.73109       -0.32041
C          3.91945        0.68841       -0.39570
C          4.49969       -0.59411       -0.33675
N          6.50867        3.93580       -0.51313
C          7.41639        5.02472       -0.55260
C          9.05064        7.31409       -0.63791
C          7.65389        7.45058       -0.65338
C          9.63070        6.03175       -0.57971
C          6.83785        6.30940       -0.61086
C          8.82393        4.89286       -0.53722
H          7.80948        0.33259       -0.35123
H          4.30424        2.83907       -0.48401
H          6.34700       -1.73313       -0.27450
H          2.82759        0.80250       -0.40875
H          3.85839       -1.48750       -0.30359
H          9.69186        8.20745       -0.67125
H          7.20303        8.45248       -0.69866
H         10.72235        5.91724       -0.56733
H          5.74209        6.38620       -0.62182
H          9.24729        3.88177       -0.49182
