25
BARBITAL.gamout	Energy:    -646.9085312
O         -0.49119       -3.00653       -0.18933
O          0.63245        1.66893       -0.29348
O         -3.32695        0.18413        1.42810
N         -1.86834       -1.38755        0.60377
N         -1.32231        0.88840        0.55253
C          0.34059       -0.73599       -0.37635
C          1.67441       -1.03688        0.37446
C          0.59024       -0.83022       -1.91327
C         -0.68233       -1.81292        0.00851
C         -0.07867        0.70260       -0.04865
C          1.59274       -0.98118        1.90323
C         -0.63504       -0.55730       -2.79152
C         -2.25645       -0.08357        0.90257
H          2.41712       -0.30500        0.00329
H          1.99974       -2.04170        0.04393
H          0.98184       -1.84747       -2.10537
H          1.39786       -0.11003       -2.14543
H          1.29820        0.02212        2.26893
H          0.87760       -1.72333        2.31002
H          2.58230       -1.20964        2.33952
H         -1.45256       -1.28038       -2.60092
H         -1.03521        0.46514       -2.64304
H         -0.36205       -0.64821       -3.85890
H         -2.54364       -2.11330        0.85581
H         -1.59226        1.85167        0.76715
