15
BENZOTHIOPHENE.gamout	Energy:    -706.3702732
C         -3.97572       -0.52584        0.11852
C         -4.62067       -0.36104       -1.14639
C         -2.87323        0.39267        0.27965
C         -4.46836       -1.51466        1.00903
S         -3.84998        0.91693       -2.09443
C         -5.72248       -1.15270       -1.51919
C         -2.69571        1.20937       -0.80848
C         -5.56274       -2.30179        0.63960
C         -6.18553       -2.12045       -0.61813
H         -2.24248        0.43542        1.17613
H         -3.98757       -1.66002        1.98837
H         -6.20904       -1.01605       -2.49420
H         -1.93889        1.98809       -0.94392
H         -5.94691       -3.07024        1.32974
H         -7.04612       -2.74846       -0.89337
