14
BENZALDEHYDE.gamout	Energy:    -345.3388875
O          5.49727        0.40545        0.35645
C          5.11890        1.56678        0.43661
C          3.70278        2.00587        0.36683
C          2.67041        1.05859        0.19619
C          3.38585        3.37644        0.47130
C          1.33971        1.47988        0.13120
C          2.05079        3.79765        0.40592
C          1.02948        2.84904        0.23595
H          5.86079        2.40626        0.57453
H          2.94193       -0.00281        0.11726
H          4.19490        4.11056        0.60419
H          0.53415        0.74414       -0.00171
H          1.80221        4.86501        0.48714
H         -0.01758        3.17724        0.18439
