16
BENZAMIDE.gamout	Energy:    -400.6920737
O          2.38131       -1.12959        0.00299
N          2.50650        1.13835        0.00081
C          0.28943        0.04705        0.00058
C         -0.44333        1.25262       -0.00119
C         -0.41572       -1.17410        0.00148
C         -1.84684        1.23489       -0.00199
C         -1.81658       -1.19354        0.00069
C         -2.53672        0.01235       -0.00103
C          1.79967       -0.04055        0.00155
H          0.06449        2.22740       -0.00189
H          0.16980       -2.10256        0.00280
H         -2.40422        2.18156       -0.00331
H         -2.35121       -2.15412        0.00141
H         -3.63490        0.00180       -0.00171
H          2.07851        2.05996       -0.00044
H          3.52389        1.07659        0.00141
