17
BENZYLAMINE.gamout	Energy:    -326.6891556
N          7.52507        4.00702       -0.13998
C          7.24315        3.02905       -1.20570
C          6.30241        1.90363       -0.81442
C          6.80390        0.71227       -0.25394
C          4.90720        2.04702       -0.94862
C          5.93661       -0.30234        0.17635
C          4.54864       -0.14317        0.04380
C          4.03577        1.03529       -0.51935
H          6.65154        4.43827        0.18474
H          7.92117        3.53251        0.67994
H          8.21293        2.60539       -1.53806
H          6.82854        3.58643       -2.07053
H          7.89196        0.57998       -0.15653
H          4.49906        2.96457       -1.39827
H          6.34631       -1.22420        0.61222
H          3.86834       -0.93821        0.37520
H          2.95017        1.16547       -0.63044
