15
BENZOTRICHLORIDE.gamout	Energy:   -1649.8755838
C          6.31570        1.85179       -0.76406
C          6.84410        0.60532       -0.41043
C          4.92624        2.06656       -0.74798
C          4.07482        1.01849       -0.37462
C          4.59919       -0.23489       -0.01904
C          5.98789       -0.45201       -0.03191
C          6.59623       -1.79946        0.31902
Cl         7.86553       -1.62441        1.61482
Cl         7.40547       -2.51327       -1.15323
Cl         5.39206       -3.00797        0.91662
H          6.99733        2.66270       -1.05506
H          7.93004        0.44670       -0.42748
H          4.51395        3.04748       -1.02613
H          2.98634        1.16912       -0.35686
H          3.92683       -1.04934        0.27038
