16
BENZENESULFONIC_ACID.gamout	Energy:    -855.6762783
S          1.73336       -0.18502       -0.04452
O          2.14118        0.37225        1.49075
O          2.16968       -1.60297       -0.11115
O          2.23083        0.85289       -0.96633
C         -0.07762       -0.10608       -0.01183
C         -0.70015        1.14375       -0.17236
C         -0.81945       -1.28840        0.13975
C         -2.10227        1.20607       -0.16322
C         -2.22360       -1.20999        0.14123
C         -2.86084        0.03281       -0.00507
H         -0.09367        2.04692       -0.31683
H         -0.29904       -2.24935        0.23944
H         -2.60616        2.17547       -0.28787
H         -2.82442       -2.12538        0.24826
H         -3.95926        0.08784        0.00022
H          2.36330       -0.42311        2.02111
