16
BENZYL_MERCAPTAN.gamout	Energy:    -669.4871217
S          0.52228        1.31745       -3.52578
C         -0.28262        0.07306       -1.07913
C          0.79804        0.11945       -2.13296
C         -0.61305        1.21368       -0.31842
C         -0.95118       -1.13667       -0.80709
C         -1.57849        1.14148        0.69433
C         -1.92153       -1.21116        0.20566
C         -2.23482       -0.07266        0.96168
H          1.75576        0.46649       -1.69559
H          0.97271       -0.88680       -2.55530
H         -0.11198        2.16816       -0.53461
H         -0.70542       -2.03429       -1.39341
H         -1.82040        2.03890        1.28154
H         -2.43420       -2.16383        0.40406
H         -2.98829       -0.12870        1.75823
H         -0.67799        0.81376       -3.93155
