14
BENZOYL_CHLORIDE.gamout	Energy:    -804.8650791
Cl         6.53533        4.52809       -1.52460
C          7.27452        2.92747       -0.97786
O          8.46982        2.84831       -0.89251
C          6.29802        1.84747       -0.68380
C          6.84077        0.60998       -0.26373
C          4.89936        1.98830       -0.79864
C          5.99691       -0.46337        0.03467
C          4.60346       -0.31904       -0.08074
C          4.05966        0.90668       -0.49710
H          7.93049        0.51248       -0.17822
H          4.47927        2.94735       -1.12478
H          6.42904       -1.41943        0.35969
H          3.94137       -1.16458        0.15458
H          2.97230        1.02581       -0.58917
