13
BENZONITRILE.gamout	Energy:    -324.2649261
N         -1.83365       -3.17367        0.00001
C         -0.52735       -0.91436       -0.00001
C          0.88679       -0.91357       -0.00000
C         -1.23422        0.30995       -0.00000
C          1.58017        0.30261        0.00000
C         -0.52863        1.51866        0.00000
C          0.87606        1.51787        0.00000
C         -1.24572       -2.15803       -0.00000
H          1.42780       -1.86867       -0.00000
H         -2.33197        0.30050       -0.00000
H          2.67900        0.30074        0.00001
H         -1.07982        2.46885        0.00001
H          1.42411        2.46918        0.00001
