22
BENZYL_ETHYL_ETHER.gamout	Energy:    -425.1028926
C          6.36534        1.87419       -0.14729
C          6.90551        0.61459       -0.44964
C          4.97633        2.03976       -0.03979
C          4.11270        0.94695       -0.23918
C          2.61913        1.09657       -0.07573
C          4.66139       -0.31057       -0.55171
C          6.05008       -0.47920       -0.65202
O          2.20801        2.41480       -0.38927
C          0.81985        2.62373       -0.15890
C          0.46962        4.05810       -0.51496
H          7.03410        2.73412        0.00572
H          7.99228        0.48606       -0.53314
H          4.54623        3.02295        0.18743
H          2.09118        0.35531       -0.72364
H          2.33072        0.85637        0.98034
H          3.99154       -1.16615       -0.72112
H          6.46699       -1.46614       -0.89809
H          0.22268        1.90537       -0.77161
H          0.58394        2.41001        0.91232
H         -0.60743        4.24622       -0.33923
H          1.05274        4.76660        0.10410
H          0.68910        4.26494       -1.57992
