24
BENZOPHENONE.gamout	Energy:    -576.2373292
O          2.30746        1.51524        1.44017
C          3.07375        1.75124        2.37946
C          2.64532        1.49365        3.79494
C          4.44402        2.30937        2.12012
C          1.27319        1.58866        4.10092
C          3.55106        1.09499        4.80014
C          5.08958        3.18388        3.01838
C          5.06001        2.00863        0.88829
C          0.81704        1.32810        5.39800
C          3.09075        0.81341        6.09333
C          6.33541        3.73495        2.69291
C          6.31326        2.54340        0.57236
C          1.72700        0.94274        6.39867
C          6.95524        3.40684        1.47762
H          0.59133        1.87818        3.29161
H          4.61641        0.97810        4.56105
H          4.60034        3.45700        3.96262
H          4.51767        1.34581        0.20254
H         -0.25321        1.41945        5.63182
H          3.80573        0.49187        6.86179
H          6.81916        4.42570        3.39499
H          6.79191        2.29606       -0.38615
H          1.37386        0.73717        7.41762
H          7.93922        3.82891        1.23542
