19
BETAINE.gamout	Energy:    -402.0554760
O          2.54835       -0.60671        0.20777
O          1.42582        0.87039       -1.13875
N         -1.10774        0.03736       -0.05258
C          0.22747       -0.52811        0.46118
C         -1.24471       -0.27262       -1.51804
C         -2.24077       -0.58488        0.69786
C         -1.12725        1.52756        0.14358
C          1.55122       -0.01927       -0.25035
H          0.27861       -0.27552        1.53654
H          0.16072       -1.62673        0.35868
H         -1.20493       -1.36800       -1.64286
H         -2.21462        0.11799       -1.87121
H         -0.38555        0.20752       -2.02080
H         -2.09860       -0.41002        1.77795
H         -3.19043       -0.12898        0.36553
H         -2.25504       -1.66935        0.49564
H         -1.04971        1.73747        1.22395
H         -0.24790        1.92343       -0.39832
H         -2.07700        1.92272       -0.25620
