24
BETA_D-FRUCTOFURANOSE.gamout	Energy:    -686.7390191
O          3.04719       -1.04999        0.31739
C          4.00705       -1.70126        1.13602
C          3.34319       -1.85617        2.54675
C          1.83784       -1.75654        2.25147
C          1.78714       -0.86926        0.99009
H          0.98781       -1.22310        0.30467
C          1.55180        0.61760        1.26757
H          1.30480       -1.28652        3.10308
O          1.36509       -3.08608        2.00868
H          3.57972       -2.84714        2.99183
O          3.73490       -0.79939        3.40228
O          5.16583       -0.88022        1.22419
C          4.36876       -3.02909        0.45819
H          5.93376       -1.48923        1.16758
H          4.47003       -2.83010       -0.62959
H          3.54543       -3.75346        0.62506
O          5.60477       -3.47738        1.03152
H          1.82291        1.18284        0.35012
H          2.20268        0.95836        2.10136
O          0.16330        0.76193        1.58645
H          0.00666        1.65452        1.93641
H          5.92475       -4.26144        0.55622
H          0.42257       -3.04372        1.76978
H          4.58116       -0.46369        3.02708
