6
BROMOTRIFLUOROETHYLENE.gamout	Energy:   -2949.5457541
C          1.10608        0.00316        0.04073
C          0.45573        0.84363        0.86741
F          0.48153       -0.83195       -0.78035
F          2.42494       -0.08701       -0.04794
F         -0.88482        0.86534        0.88888
Br         1.31803        2.03159        2.03579
