6
BROMOCHLOROACETONITRILE.gamout	Energy:   -3165.6630498
Br        -1.45978        1.47576       -0.20496
Cl        -1.11563       -1.64216       -0.20707
N          2.08292        0.16632       -0.16413
C         -0.45917       -0.09719        0.43727
C          0.94593        0.04613        0.08858
H         -0.59566       -0.11263        1.53370
