12
BROMOPENTAFLUOROBENZENE.gamout	Energy:   -3301.4194528
C          6.33998        1.86903       -0.67319
C          6.87550        0.61397       -0.33786
C          4.94619        2.04266       -0.72153
F          7.15429        2.89443       -0.94528
F          4.43301        3.23848       -1.04110
C          4.09395        0.96180       -0.43467
C          4.61907       -0.30000       -0.09781
F          2.77048        1.16023       -0.48956
C          6.01641       -0.46148       -0.05264
Br         3.47122       -1.75249        0.28733
F          6.55599       -1.64536        0.26337
F          8.20382        0.44587       -0.29084
