12
BROMOBENZENE.gamout	Energy:   -2805.6085687
Br        -1.64267       -0.00014       -0.00015
C          0.27651        0.00047        0.00010
C          0.96379        1.22314        0.00035
C          2.36981        1.21367        0.00038
C          3.07504       -0.00026       -0.00074
C          2.36948       -1.21386       -0.00083
C          0.96353       -1.22229        0.00185
H          0.41136        2.17150        0.00057
H          2.91564        2.16876        0.00095
H          4.17548       -0.00035       -0.00131
H          2.91487       -2.16917       -0.00157
H          0.41075       -2.17034        0.00131
