5
BROMOCHLORODIFLUOROMETHANE.gamout	Energy:   -3271.8413146
Br        -0.01187       19.96882       -0.00000
C          1.95427       20.00547        0.00016
Cl         2.58182       21.67996       -0.00020
F          2.40591       19.36115        1.08963
F          2.40621       19.36062       -1.08886
