13
BUTAN-2-ONE.gamout	Energy:    -232.3101740
C          1.96680        2.04407        2.67135
C          0.47840        2.33980        2.85022
C          2.34778        1.54124        1.28107
C          3.81871        1.22998        1.05191
O          1.51472        1.39476        0.39531
H          2.58829        2.94317        2.88054
H          2.32155        1.28723        3.40629
H         -0.12855        1.43394        2.66464
H          0.27063        2.69859        3.87597
H          0.13953        3.11208        2.13417
H          3.97539        0.87682        0.01844
H          4.43815        2.13144        1.23778
H          4.16641        0.45706        1.76802
