31
BUTABARBITAL.gamout	Energy:    -725.4721930
O         -0.67706       -2.22453       -1.21796
O          0.19705        0.79218        2.26999
O         -3.35301        1.40679       -0.53206
N         -1.90559       -0.33015       -0.96251
N         -1.48538        1.15469        0.78916
C          0.29245       -0.48654        0.19461
C          1.22724        0.38637       -0.78462
C          1.10597       -1.57178        0.93234
C          2.37402        1.09126       -0.02476
C         -0.78419       -1.12413       -0.69367
C         -0.31619        0.50375        1.19668
C          1.79278       -0.43511       -1.95452
C          0.31800       -2.45938        1.90523
C          3.03023        2.23299       -0.81510
C         -2.32439        0.80162       -0.26564
H          0.56802        1.17573       -1.20946
H          1.91734       -1.06051        1.47879
H          1.57844       -2.21000        0.16414
H          3.14432        0.33908        0.24251
H          2.00472        1.49135        0.93704
H          2.49781       -1.20929       -1.59783
H          2.35263        0.24019       -2.62667
H          1.01481       -0.93409       -2.55764
H         -0.13123       -1.87618        2.73216
H         -0.47836       -3.03358        1.39332
H          1.01069       -3.19133        2.35830
H          3.81356        2.71679       -0.20152
H          2.29348        3.01508       -1.08873
H          3.51579        1.88854       -1.74920
H         -2.57361       -0.69236       -1.64728
H         -1.83830        1.89593        1.39927
