22
BUTOXYETHANOL.gamout	Energy:    -387.2351591
O         -0.64536        0.11187       -0.09542
O         -4.16493        0.91157       -0.19699
C          1.73337       -0.18523       -0.02586
C          3.12283        0.46813        0.02675
C          0.58648        0.82103       -0.04800
C          4.26504       -0.55709        0.04844
C         -1.78399        0.95323       -0.12124
C         -3.01861        0.05936       -0.16943
H          1.65194       -0.82901       -0.92700
H          1.59691       -0.85333        0.85070
H          3.19586        1.11718        0.92630
H          3.25152        1.14260       -0.84755
H          0.61908        1.47195        0.86047
H          0.67514        1.49570       -0.93505
H         -1.82590        1.60441        0.78453
H         -1.77015        1.62381       -1.01387
H          4.18858       -1.22369        0.93131
H          4.24631       -1.19775       -0.85660
H          5.25294       -0.05892        0.08718
H         -3.02058       -0.60466        0.72438
H         -2.96329       -0.58582       -1.07513
H         -4.96631        0.36378       -0.22815
