31
BUTOBARBITAL.gamout	Energy:    -725.4762812
O          0.26430       -0.69483       -2.41064
O          0.40410        1.60321        1.81318
O          2.64432       -2.31172        1.13116
N          1.46036       -1.44338       -0.63577
N          1.56175       -0.30185        1.40224
C          0.20667        0.72155       -0.44147
C         -1.34904        0.76835       -0.40772
C          0.79537        1.95535       -1.22241
C         -2.01994       -0.46708        0.20914
C          0.62641       -0.51471       -1.25457
C          0.71376        0.73467        1.00659
C         -3.55131       -0.36135        0.21384
C          0.32491        3.34389       -0.77983
C          1.94501       -1.42163        0.66952
C         -4.24144       -1.58554        0.82856
H         -1.69475        0.90294       -1.45139
H         -1.63900        1.66858        0.16463
H          0.52138        1.78352       -2.28269
H          1.90308        1.90105       -1.17265
H         -1.72296       -1.37554       -0.35584
H         -1.66606       -0.60973        1.25337
H         -3.90610       -0.21584       -0.82873
H         -3.84879        0.55234        0.77158
H         -0.76834        3.46282       -0.89596
H          0.58256        3.55478        0.27387
H          0.81056        4.11026       -1.41395
H          1.73178       -2.25975       -1.18902
H          1.88404       -0.28574        2.37328
H         -3.91313       -1.74287        1.87586
H         -4.00515       -2.50777        0.26000
H         -5.34242       -1.46905        0.83610
