28
BUTYLPARABEN.gamout	Energy:    -652.8611660
O          1.25822        0.08280        0.05594
O          0.48175        2.21622        0.16836
O         -4.98591       -1.13536       -0.08549
C          3.57347       -0.57335        0.03906
C          5.04399       -0.12729        0.06566
C          2.60849        0.60345        0.08948
C          6.03369       -1.29748        0.01910
C         -1.09095        0.39581        0.05110
C          0.26438        1.01250        0.09855
C         -2.22037        1.24293        0.08831
C         -1.28999       -0.99823       -0.03223
C         -3.51385        0.72030        0.04252
C         -2.58236       -1.53178       -0.07937
C         -3.70023       -0.67368       -0.04232
H          3.37666       -1.16400       -0.88096
H          3.36868       -1.24875        0.89680
H          5.22850        0.47509        0.98160
H          5.23582        0.55668       -0.78928
H          2.73280        1.20676        1.01205
H          2.74541        1.29002       -0.77088
H          5.89433       -1.97680        0.88460
H          5.90552       -1.90159       -0.90225
H          7.08073       -0.93878        0.04072
H         -2.06225        2.32831        0.15294
H         -0.42206       -1.66747       -0.06167
H         -4.39514        1.37387        0.07064
H         -2.72728       -2.62093       -0.14529
H         -4.98648       -2.10769       -0.14360
