19
BUTYL_VINYL_ETHER.gamout	Energy:    -310.8400675
C          3.01677        1.32385        2.86603
C          4.46964        1.03954        3.25702
O          5.36183        1.04663        2.13383
C          2.06034        1.24629        4.06622
C          5.77929        2.26838        1.69574
C          0.59636        1.52278        3.69881
C          6.37036        2.44960        0.50056
H          2.95594        2.32978        2.39710
H          2.71272        0.59466        2.08560
H          4.82294        1.77332        4.01833
H          4.56279        0.02681        3.69773
H          2.13778        0.23921        4.53139
H          2.38780        1.97005        4.84393
H          5.63208        3.09947        2.41138
H         -0.05910        1.45765        4.58858
H          0.22459        0.79226        2.95195
H          0.47343        2.53562        3.26404
H          6.50777        1.61545       -0.20069
H          6.73890        3.44426        0.22005
