29
BUTYL_4-AMINOBENZOATE.gamout	Energy:    -633.0120802
O          1.25696        0.08521        0.07152
O          0.49422        2.22504        0.17816
N         -4.99203       -1.19679       -0.00750
C          3.56736       -0.58031        0.03487
C          5.04045       -0.14130        0.04676
C          2.60668        0.60036        0.09140
C          6.02542       -1.31540       -0.00681
C         -1.08687        0.40973        0.08561
C          0.26505        1.02146        0.11758
C         -2.21838        1.25357        0.12675
C         -1.29287       -0.98601        0.01340
C         -3.71821       -0.67355        0.02280
C         -3.50931        0.72824        0.09623
C         -2.58113       -1.52139       -0.01811
H          3.35788       -1.17223       -0.88163
H          3.36714       -1.25338        0.89569
H          5.23603        0.46189        0.95989
H          5.22726        0.54052       -0.81106
H          2.74294        1.20600        1.01095
H          2.73944        1.28421       -0.77190
H          5.89117       -1.99276        0.86107
H          5.88706       -1.92068       -0.92601
H          7.07410       -0.96070        0.00491
H         -2.06028        2.34041        0.18266
H         -0.42324       -1.65434       -0.01921
H         -4.37675        1.40247        0.12904
H         -2.72022       -2.61047       -0.07497
H         -5.14896       -2.19843       -0.06037
H         -5.81045       -0.59636        0.02109
