21
CAFFEIC_ACID.gamout	Energy:    -648.2553922
C          1.31585       -0.56263        0.27171
C          0.63800        0.61908        0.24737
C         -0.79936        0.80763        0.06658
C          2.76965       -0.69179        0.45616
C         -1.70017       -0.27603       -0.10998
C         -1.33054        2.11840        0.06317
O          3.42372        0.50415        0.60968
O          3.37094       -1.76045        0.47503
C         -3.07092       -0.07649       -0.28363
C         -2.70349        2.32861       -0.11047
O         -3.97692       -1.08472       -0.45735
C         -3.58435        1.24975       -0.28428
O         -4.93027        1.39491       -0.45714
H          0.80644       -1.52861        0.15006
H          1.22464        1.54337        0.37504
H         -1.31826       -1.30724       -0.11221
H         -0.66060        2.97993        0.19704
H          4.37038        0.27846        0.72164
H         -3.11302        3.34995       -0.11313
H         -3.51808       -1.94280       -0.44004
H         -5.16137        2.34101       -0.43902
