26
CAMPHENE.gamout	Energy:    -390.4047856
C          0.74053       -0.96591       -0.10029
C          1.79373       -1.97319       -0.61564
C          1.40883        0.41961       -0.01802
C          0.12894       -1.46691        1.25513
C         -0.52124       -0.96924       -0.99753
C         -0.92266       -2.49504        0.76905
C         -0.80049       -0.39382        1.87419
C         -0.60165       -0.59530       -2.28703
C         -1.66059       -1.48389       -0.14048
C         -2.01477       -0.36679        0.88765
H          2.67425       -1.98104        0.05834
H          2.13984       -1.68557       -1.62697
H          1.39957       -3.00343       -0.67939
H          1.87017        0.68160       -0.99005
H          2.21638        0.42866        0.74435
H          0.68757        1.21901        0.22775
H          0.89448       -1.84976        1.95571
H         -1.55776       -2.87942        1.59012
H         -0.49711       -3.35226        0.21862
H         -0.31785        0.59304        1.99486
H         -1.11847       -0.71602        2.88526
H         -1.54986       -0.65497       -2.84462
H          0.27029       -0.21686       -2.84215
H         -2.53015       -1.85753       -0.71289
H         -2.15158        0.61371        0.39552
H         -2.96308       -0.61347        1.40446
