25
CARVACROL.gamout	Energy:    -464.4145850
C         -3.62020        0.88843        0.26720
C         -2.35542        0.06661        0.15231
H         -4.39479        0.38322        0.88583
H         -4.07451        1.10484       -0.72550
H         -3.41512        1.86488        0.74298
C         -1.12316        0.51252        0.66998
C         -2.36786       -1.19697       -0.48559
C          0.04909       -0.25102        0.56195
H         -1.08965        1.49165        1.17454
C         -1.19483       -1.96629       -0.59823
C          0.02934       -1.50865       -0.07950
H          0.98709        0.13910        0.98201
C          1.29465       -2.35429       -0.21068
C          2.34881       -1.66525       -1.09956
H          1.93034       -1.40802       -2.09096
H          3.22391       -2.32690       -1.25685
H          2.71337       -0.72915       -0.63092
C          1.88277       -2.72993        1.16242
H          1.00305       -3.30131       -0.71402
H          2.74680       -3.41342        1.04197
H          1.12974       -3.23356        1.79741
H          2.23940       -1.83278        1.70699
H         -1.25721       -2.94011       -1.10481
O         -3.51927       -1.73072       -1.02119
H         -4.25885       -1.10844       -0.89825
