5
CHLORODIFLUOROMETHANE.gamout	Energy:    -698.3291428
Cl         1.71193        1.51095        0.00415
C          0.16016        0.59847       -0.00195
F         -0.87573        1.46828       -0.01309
F          0.08539       -0.17203       -1.11202
H          0.11574       -0.03530        0.90475
