5
CHLOROTRIFLUOROMETHANE.gamout	Energy:    -797.5064929
Cl        -1.43251        0.00002        0.00002
C          0.35496       -0.00002       -0.00011
F          0.81617        0.00002        1.25958
F          0.81623       -1.09112       -0.62980
F          0.81616        1.09108       -0.62975
