14
CHLOROTHALONIL.gamout	Energy:   -2254.4436536
N          7.88900        3.90031       -1.21230
C          7.19009        2.98931       -0.97014
C          6.32880        1.88159       -0.67634
C          6.86379        0.61344       -0.33791
C          4.91667        2.04649       -0.72244
Cl         8.57834        0.39535       -0.27725
C          6.00850       -0.47890       -0.04845
Cl         4.27294        3.59532       -1.13632
C          4.05003        0.96780       -0.43649
C          6.54560       -1.76244        0.29418
C          4.59983       -0.28981       -0.10088
Cl         2.33570        1.18459       -0.49688
N          6.97724       -2.81606        0.57714
Cl         3.56592       -1.62797        0.25417
