12
CHLOROPENTAFLUOROBENZENE.gamout	Energy:   -1187.4043233
C          6.33827        1.86663       -0.67275
C          6.87474        0.61196       -0.33763
C          4.94460        2.04026       -0.72103
F          7.15209        2.89239       -0.94462
F          4.43102        3.23563       -1.04014
C          4.09285        0.95955       -0.43436
C          4.61807       -0.30354       -0.09723
F          2.76906        1.15185       -0.48721
C          6.01701       -0.46432       -0.05220
Cl         3.56240       -1.63413        0.25595
F          6.55423       -1.64864        0.26470
F          8.20293        0.44501       -0.29070
