8
CHLOROETHANE.gamout	Energy:    -539.2756380
C          2.38291        0.97886        1.39810
C          1.31873        1.97216        0.96672
Cl        -0.03083        2.09794        2.19145
H          2.85171        1.27968        2.35407
H          3.17403        0.93680        0.62081
H          1.96072       -0.03664        1.51836
H          0.83327        1.68065        0.01721
H          1.72077        2.99644        0.86074
