8
CHLOROACETIC_ACID.gamout	Energy:    -688.4379278
Cl        -0.36092        2.47140        1.72828
O         -2.11746        0.49172        0.06789
O         -0.28223       -0.84024        0.01902
C          0.02073        1.55159        0.21711
C         -0.78291        0.26519        0.10590
H         -0.20992        2.21798       -0.63590
H          1.09304        1.29935        0.23407
H         -2.55537       -0.38246       -0.01195
