8
CHLORO1,1DIFLUOROETHANE.gamout	Energy:    -737.6249889
Cl        -1.42297       -0.01640        0.00004
C          0.39379        0.06388       -0.00006
C          0.90602        1.48473        0.00000
F          0.83428       -0.61962        1.09469
F          0.83438       -0.61968       -1.09473
H          0.54753        2.01180        0.90142
H          2.01206        1.45172        0.00008
H          0.54771        2.01212       -0.90129
