19
CHLOROXYLENOL.gamout	Energy:    -845.3538690
Cl         2.82831        0.00829       -0.00001
O         -3.10132        0.02735       -0.00019
C          0.37169        1.22980       -0.00019
C          0.39514       -1.25041        0.00007
C          1.05651       -0.00562       -0.00005
C         -1.03560        1.19892       -0.00023
C         -1.01510       -1.23825        0.00001
C         -1.72755       -0.02519       -0.00013
C          1.12300        2.53697       -0.00024
C          1.16228       -2.54877        0.00025
H         -1.61266        2.13599       -0.00033
H         -1.55883       -2.19793        0.00013
H          1.78214        2.61150        0.88769
H          1.78218        2.61140       -0.88814
H          0.42872        3.39626       -0.00032
H          1.82176       -2.61739       -0.88786
H          1.82167       -2.61702        0.88844
H          0.47645       -3.41496        0.00038
H         -3.46848       -0.87447       -0.00004
