6
CHLOROACETONITRILE.gamout	Energy:    -592.1525918
Cl        -2.10723       -0.54596       -0.00000
N          0.53885        2.05254       -0.00010
C         -1.96787        1.26086       -0.00009
C         -0.57377        1.69038       -0.00010
H         -2.48698        1.63730       -0.90205
H         -2.48701        1.63736        0.90182
