19
CINNAMIC_ACID.gamout	Energy:    -497.8979003
C          1.55837        0.90940        2.32646
C          2.84471        0.52923        2.55709
C          3.98450        1.39365        2.88094
C          0.45716       -0.01976        2.00411
C          5.25069        0.79468        3.08886
C          3.88078        2.80249        2.99714
O          0.83655       -1.33543        1.95109
O         -0.70000        0.32705        1.79803
C          6.37296        1.57153        3.40134
C          5.00181        3.57890        3.30885
C          6.25015        2.96458        3.51158
H          1.24527        1.96209        2.36575
H          3.07098       -0.54760        2.49766
H          5.34673       -0.29769        3.00261
H          2.90867        3.28794        2.84107
H          0.02588       -1.83972        1.73146
H          7.34966        1.09191        3.55986
H          4.91193        4.67175        3.39687
H          7.12930        3.57591        3.75626
