16
CIS,CIS-2,4-HEXADIENE.gamout	Energy:    -234.4591694
C          0.56032        2.66102        1.27224
C          1.32083        1.36837        1.21331
C          2.66929        1.20519        1.12773
C          3.66277        2.26710        1.07647
C          5.01124        2.10472        0.99094
C          5.77268        0.81271        0.93200
H         -0.04493        2.72194        2.20223
H          1.21433        3.55109        1.23565
H         -0.16018        2.73410        0.42927
H          0.70499        0.45359        1.24344
H          3.04329        0.16996        1.09423
H          3.28841        3.30222        1.10979
H          5.62621        3.02006        0.96063
H          6.49361        0.74021        1.77472
H          5.11936       -0.07786        0.96885
H          6.37753        0.75238        0.00176
