27
CIS,CIS-1,2,3-TRIMETHYLCYCLOHEXANE.gamout	Energy:    -353.5524780
C          4.10775        1.60996        1.90927
C          3.59009        2.59339        0.83109
C          2.39575        3.43216        1.33993
C          3.79023        2.11577        3.32662
C          2.24387        2.20250        3.56484
C          4.55351        1.32492        4.39829
C          1.46878        2.61762        2.25997
C          1.64101        0.95839        4.23810
H          3.65837        0.60256        1.77785
H          5.20111        1.46580        1.79926
H          4.40617        3.27818        0.52247
H          3.30439        2.03610       -0.08357
H          1.82432        3.83504        0.48038
H          2.76738        4.31844        1.89560
H          4.16974        3.15966        3.38013
H          2.09750        3.04003        4.27965
H          4.33402        1.69171        5.42079
H          4.30916        0.24407        4.36793
H          5.64709        1.41973        4.24202
H          2.08004        0.78632        5.23865
H          0.54889        1.08020        4.38242
H          1.79492        0.03574        3.64336
C          0.80981        1.46519        1.48086
H          0.64181        3.28707        2.58025
H          1.53664        0.70622        1.13227
H          0.04845        0.93794        2.08394
H          0.29599        1.86441        0.58233
