27
CIS,TRANS-1,3,5-TRIMETHYLCYCLOHEXANE.gamout	Energy:    -353.5617102
C          2.04945        1.25179        4.03963
C          2.25136        1.11903        5.55741
C          1.41014        2.59133        3.63445
C          3.37869        1.05853        3.26146
C          0.99809        2.61637        2.14096
C          3.40049        1.75658        1.87702
C          0.87745        4.05272        1.61173
C          1.98268        1.77405        1.28617
H          1.34775        0.44633        3.72550
H          2.90287        1.93243        5.93885
H          1.28882        1.17273        6.10399
H          2.73398        0.15555        5.81389
H          2.13246        3.41257        3.84281
H          0.52444        2.80132        4.26596
H          3.57293       -0.02694        3.12638
H          4.22108        1.44208        3.87583
H         -0.00608        2.14518        2.06659
H          0.20383        4.66333        2.24521
H          1.86541        4.55870        1.59518
H          0.47543        4.07088        0.57912
H          2.00723        2.16788        0.25037
H          1.62506        0.72548        1.20278
C          4.41695        1.10547        0.92951
H          3.71590        2.81224        2.03206
H          5.42639        1.06578        1.38455
H          4.11200        0.06483        0.69563
H          4.49885        1.65682       -0.02821
