21
CIS-1,3-DIMETHYLCYCLOPENTANE.gamout	Energy:    -274.9903136
C          2.05474        1.90818        2.18361
C          0.63904        1.61249        1.68604
C          2.67672        3.20906        1.64606
C          3.10192        0.82644        1.80148
C          4.17641        3.06419        1.95889
C          4.46024        1.57167        1.64319
C          5.08883        4.04606        1.22314
H          2.02818        1.98681        3.29417
H          0.62353        1.53643        0.57878
H         -0.07289        2.40861        1.98134
H          0.26024        0.65557        2.09598
H          2.22758        4.12001        2.08798
H          2.52771        3.26654        0.54309
H          2.80992        0.34770        0.84373
H          3.14270        0.01559        2.55542
H          4.30551        3.21770        3.05482
H          4.83228        1.47859        0.60154
H          5.25467        1.16012        2.29645
H          6.15391        3.87274        1.47349
H          4.85174        5.09761        1.47934
H          4.97625        3.93065        0.12479
