15
CIS-2-PENTENE.gamout	Energy:    -196.3943604
C          1.94592        3.19678        2.40712
C          0.41737        3.37972        2.34795
C          2.35672        1.77232        2.67553
C          3.26869        1.03018        2.00953
C          4.10713        1.43722        0.82913
H          2.35128        3.84792        3.21496
H          2.40353        3.56072        1.46598
H         -0.06065        3.05968        3.29592
H         -0.02152        2.77615        1.52911
H          0.14948        4.44021        2.17540
H          1.84293        1.28767        3.52481
H          3.42845       -0.00175        2.36738
H          5.18891        1.41339        1.08321
H          3.87295        2.45318        0.46064
H          3.97178        0.72762       -0.01444
