24
CIS-2-OCTENE.gamout	Energy:    -314.2482118
C          3.01253        3.43738        0.98957
C          1.97614        3.61863        2.11963
C          0.75281        2.69040        1.99944
C          4.09221        4.48709        1.00359
C          1.06908        1.18390        2.00740
C          5.42839        4.30590        1.09358
C          1.73775        0.68827        3.29611
C          6.18291        3.00800        1.17619
H          3.46095        2.42645        1.05048
H          2.47242        3.47791        0.01559
H          2.47843        3.47283        3.09875
H          1.62242        4.67088        2.12084
H          0.04816        2.91532        2.82907
H          0.20758        2.93587        1.06266
H          3.73396        5.52991        0.93839
H          0.12470        0.62492        1.84801
H          1.71227        0.93528        1.13644
H          6.05194        5.21576        1.10170
H          1.11076        0.91299        4.18320
H          2.72586        1.16278        3.45755
H          1.89839       -0.40583        3.26542
H          5.52193        2.12252        1.12601
H          6.76742        2.94574        2.11902
H          6.92085        2.92770        0.34887
