16
CIS-1,3-HEXADIENE.gamout	Energy:    -234.4542920
C          5.50772        2.81063        2.66300
C          4.89147        1.92685        1.55935
C          3.86754        2.65195        0.73034
C          2.55374        2.33654        0.57420
C          1.85537        1.20710        1.17197
C          0.54224        0.93874        0.97692
H          6.28914        2.25628        3.21857
H          4.73540        3.13995        3.38559
H          5.97590        3.71958        2.23400
H          4.45606        1.01512        2.01222
H          5.70918        1.57959        0.88783
H          4.23746        3.54938        0.20347
H          1.94295        2.99077       -0.07085
H          2.43616        0.53270        1.82230
H          0.05650        0.07440        1.45009
H         -0.08315        1.57912        0.33578
