10
CIS-CROTONONITRILE.gamout	Energy:    -210.0039788
N          2.07226       -0.51078        0.00001
C         -1.71527       -1.01252       -0.00002
C         -1.34704        0.43587        0.00000
C         -0.08883        0.94432       -0.00001
C          1.09103        0.13546        0.00000
H         -2.33775       -1.25423       -0.88736
H         -0.82831       -1.67203       -0.00011
H         -2.33747       -1.25422        0.88752
H         -2.17507        1.16335        0.00007
H          0.07279        2.03327        0.00007
