13
CIS-1,3-PENTADIENE.gamout	Energy:    -195.1637566
C          2.85347        0.48338        1.74640
C          1.49557        1.01852        1.89689
C          1.08574        2.31294        1.85545
C          3.83619        0.92833        0.92872
C          1.93490        3.53708        1.67688
H          3.06750       -0.41362        2.35508
H          0.72138        0.26317        2.11445
H          0.00634        2.49293        2.00004
H          3.68991        1.76926        0.23549
H          4.81635        0.42864        0.90478
H          1.86149        3.93657        0.64138
H          3.00404        3.33421        1.87940
H          1.59134        4.34953        2.34884
