21
CIS-2-HEPTENE.gamout	Energy:    -274.9650808
C          0.65674        4.28495        2.26745
C          1.77698        3.81458        1.33174
C          2.59633        2.64694        1.90151
C          3.72429        2.17337        0.96032
C          4.47832        0.98367        1.49388
C          5.78852        0.91010        1.81392
C          6.82548        1.99228        1.69632
H          1.05980        4.62925        3.24209
H          0.08320        5.12510        1.82895
H         -0.05605        3.46099        2.47404
H          1.34060        3.51084        0.35507
H          2.45960        4.66380        1.11047
H          1.92028        1.79073        2.11873
H          3.03785        2.94266        2.87784
H          4.41228        3.01934        0.75991
H          3.26910        1.90382       -0.02054
H          3.87080        0.07488        1.65218
H          6.15342       -0.05414        2.20668
H          7.65279        1.68285        1.02109
H          6.41301        2.94313        1.31121
H          7.29151        2.19955        2.68325
