24
CIS-4-OCTENE.gamout	Energy:    -314.2491501
C          2.64228        3.39012        1.83986
C          3.98835        3.33268        1.73516
C          4.92481        2.31793        2.33729
C          1.73320        2.46141        2.59969
C          5.96928        2.94178        3.29101
C          0.67091        1.77126        1.71504
C          5.35700        3.54039        4.56190
C          1.26322        0.79128        0.69618
H          2.12953        4.21688        1.31534
H          4.48373        4.12553        1.14589
H          5.46654        1.80492        1.51255
H          4.36368        1.52700        2.87486
H          2.31873        1.68827        3.13715
H          1.20584        3.04619        3.38495
H          6.53738        3.72349        2.74183
H          6.70947        2.16123        3.56368
H         -0.03742        1.23442        2.37924
H          0.07174        2.54632        1.19039
H          4.62069        4.33225        4.31914
H          6.13478        3.98897        5.21019
H          4.83173        2.76480        5.15558
H          0.46995        0.32191        0.08273
H          1.96724        1.30048        0.00844
H          1.82006       -0.02235        1.20396
