22
CIS-4-METHYLCYCLOHEXANOL.gamout	Energy:    -350.1695035
C          0.14139        0.77762        1.29289
C          1.02945        0.82226        0.04541
C          1.78606        2.15780       -0.07684
C          2.02483       -0.35308        0.00758
C          2.68582        2.20478       -1.32117
C          2.92418       -0.31389       -1.23718
C          3.67090        1.02401       -1.37149
O          4.71766        1.15398       -0.39313
H         -0.59691        1.60329        1.29354
H         -0.41639       -0.17696        1.35393
H          0.74918        0.87164        2.21668
H          0.37345        0.72791       -0.85167
H          1.06682        3.00106       -0.10093
H          2.39451        2.31473        0.84405
H          1.47660       -1.31572        0.04462
H          2.64493       -0.32888        0.93368
H          3.25669        3.15307       -1.36327
H          2.05017        2.16774       -2.23220
H          3.66412       -1.13808       -1.21955
H          2.29725       -0.45983       -2.14322
H          4.21098        1.04380       -2.33778
H          4.31705        1.14451        0.49493
