18
CIS-1-METHYL-2-ETHYLCYCLOPROPANE.gamout	Energy:    -235.6725479
C          2.01006        2.61227        0.66544
C          1.78702        2.45117        2.15877
C          3.19850        2.41746        1.58985
C          4.04121        1.15321        1.54015
C          4.80954        0.88563        2.84332
H          1.73114        1.76018        0.02581
H          1.84820        3.59410        0.19847
H          3.79167        3.32654        1.78792
H          4.75879        1.24039        0.69613
H          3.39799        0.28240        1.29627
H          5.47763        1.73553        3.09200
H          4.11600        0.74737        3.69623
H          5.43874       -0.02278        2.76459
C          1.08877        1.22356        2.71036
H          1.53585        3.38006        2.69583
H          1.35849        1.04387        3.77078
H         -0.01211        1.34561        2.66115
H          1.34271        0.31057        2.13823
