27
CIS-1-METHYL-2-ETHYLCYCLOHEXANE.gamout	Energy:    -353.5597199
C          1.02920        3.55074        1.47484
C          1.29569        2.05906        1.73416
C          2.76518        1.61869        1.96924
C          3.23093        1.65851        3.45370
C          3.77490        2.32188        1.04156
C          3.12874        3.03503        4.13208
C          4.65650        1.07284        3.56247
C          5.66621        1.76935        2.63730
H          1.34509        4.19212        2.31892
H          1.55391        3.91007        0.56838
H         -0.05299        3.72317        1.31339
H          0.90157        1.49033        0.86505
H          0.68849        1.72288        2.60199
H          2.79539        0.53929        1.69977
H          2.55563        0.97355        4.01212
H          3.42926        2.24994       -0.01040
H          3.50678        2.97591        5.17137
H          3.72079        3.81232        3.61128
H          2.08142        3.38344        4.17905
H          4.61375       -0.00315        3.28929
H          5.00200        1.11596        4.61611
H          6.66072        1.28975        2.73479
C          5.18479        1.72695        1.17976
H          3.81429        3.40642        1.27934
H          5.80105        2.82780        2.94828
H          5.16520        0.66924        0.83767
H          5.89787        2.26039        0.51832
