10
CIS-CROTONITRILE.gamout	Energy:    -210.0040520
C          0.84359        1.61444        1.99963
C          1.71277        1.54686        0.95968
C          0.95593        0.81038        3.17747
C          2.90484        0.65077        0.86073
N          1.03032        0.15976        4.15293
H         -0.00697        2.31292        1.97170
H          1.51914        2.21765        0.10683
H          3.82988        1.24996        0.72555
H          3.02640        0.01169        1.75458
H          2.82471       -0.00274       -0.03338
