24
CIS-1,2-DIMETHYLCYCLOHEXANE.gamout	Energy:    -314.2719498
C          2.49017        1.05962        5.19539
C          2.86557        1.06120        3.70695
C          1.67213        1.38567        2.75031
C          4.05809        1.98643        3.40217
C          2.18940        1.77940        1.33855
C          4.63685        1.71631        1.99042
C          3.56155        1.17254        1.02057
H          3.32385        0.65881        5.80535
H          2.27250        2.08210        5.56394
H          1.59830        0.43253        5.39485
H          3.19046        0.02742        3.45777
H          4.84572        1.85887        4.17146
H          3.72455        3.04324        3.48736
H          2.27036        2.88761        1.28104
H          1.44244        1.49336        0.57060
H          5.47811        0.99687        2.05517
H          5.06654        2.65204        1.57798
H          3.84570        1.39574       -0.02567
H          3.50238        0.06565        1.08882
C          0.72466        2.47307        3.27844
H          1.08382        0.44723        2.65304
H         -0.04199        2.71980        2.51703
H          0.18988        2.16281        4.19589
H          1.27576        3.40906        3.50444
