18
CIS-2-HEXENE.gamout	Energy:    -235.6785855
C          3.29718        1.75089        1.38064
C          2.08790        2.56883        1.75259
C          1.46845        2.20808        3.12437
C          4.54749        2.19599        1.12411
C          0.89892        0.78587        3.20616
C          5.04463        3.61447        1.15120
H          3.13048        0.66353        1.29601
H          2.33330        3.64874        1.74185
H          1.30565        2.42341        0.97208
H          2.23492        2.35252        3.91466
H          0.66027        2.93836        3.33898
H          5.30500        1.43835        0.85777
H          0.37407        0.62168        4.16756
H          0.17208        0.60352        2.38867
H          1.69304        0.01747        3.12798
H          5.85561        3.73377        1.90127
H          5.48768        3.89581        0.17221
H          4.25279        4.34775        1.38912
