24
CIS-1-METHYL-2-ETHYLCYCLOPENTANE.gamout	Energy:    -314.2719596
C          5.55380        2.98451        1.64198
C          4.44213        2.18027        0.95579
C          3.17904        1.99050        1.80694
C          2.39301        3.26768        2.22066
C          2.10150        1.10829        1.13930
C          2.14247        4.24881        1.06543
C          1.07003        2.67266        2.76435
C          0.78225        1.40938        1.90018
H          5.81645        2.54406        2.62526
H          5.24546        4.03338        1.82177
H          6.47506        3.00610        1.02767
H          4.16427        2.66075       -0.00690
H          4.83128        1.17607        0.68358
H          3.48633        1.49351        2.75548
H          2.93311        3.80418        3.02618
H          2.37940        0.03756        1.16070
H          2.01009        1.38440        0.06813
H          1.53194        5.10388        1.41466
H          1.59368        3.76932        0.23049
H          3.08497        4.65865        0.65504
H          0.23612        3.40108        2.73516
H          1.20188        2.38844        3.82735
H          0.47929        0.55592        2.53755
H         -0.05649        1.57856        1.19718
