18
CIS-1,2-DIMETHYLCYCLOBUTANE.gamout	Energy:    -235.6755322
C          0.52186        1.35685       -0.23180
C          0.53903       -0.17247        0.08387
C          2.10933       -0.10166        0.06831
C          2.00700        1.44435        0.22324
C         -0.09723       -0.52991        1.42661
C          2.93199       -0.89848        1.07172
H         -0.21643        1.96871        0.32224
H          0.40435        1.56271       -1.31372
H          0.10654       -0.81960       -0.70671
H          2.45702       -0.33943       -0.95903
H          2.69697        2.06512       -0.37944
H          2.09851        1.75558        1.28360
H         -1.19687       -0.40049        1.37967
H          0.10655       -1.58252        1.70651
H          0.27783        0.11624        2.24606
H          4.00747       -0.64445        0.98516
H          2.83226       -1.98995        0.90339
H          2.62448       -0.68770        2.11550
