27
CIS-1-METHYL-4-ETHYLCYCLOHEXANE.gamout	Energy:    -353.5594237
C          0.70360        1.73161        1.16272
C          2.05597        1.01104        1.09735
C          3.13536        1.55557        2.04861
C          3.63764        2.96005        1.67175
C          4.33923        0.58133        2.12371
C          4.56562        3.54283        2.76367
C          5.64674        1.27002        2.57424
C          5.36827        2.45100        3.51681
C          6.65260        3.01634        4.12747
H          0.78221        2.79810        0.87298
H         -0.02735        1.25934        0.47897
H          0.27809        1.69220        2.18636
H          1.90030       -0.06634        1.32181
H          2.45549        1.04644        0.05991
H          2.67979        1.62559        3.06299
H          4.18168        2.88481        0.70493
H          2.78847        3.64668        1.48649
H          4.08414       -0.24654        2.81660
H          4.48544        0.10872        1.12909
H          5.27643        4.26508        2.30828
H          3.97329        4.12708        3.49786
H          6.31462        0.53668        3.06742
H          6.20999        1.64586        1.69200
H          4.73467        2.07074        4.34961
H          7.17984        2.25349        4.73303
H          7.34318        3.35264        3.32701
H          6.44749        3.88649        4.78227
