28
CIS-DECAHYDRONAPHTHALENE.gamout	Energy:    -391.6436174
C          0.12744        0.80615       -0.70180
C         -1.34599        0.34284       -0.54271
C          1.08172       -1.16102        0.57680
H         -0.38617       -2.79252        0.70654
H         -0.19216       -2.11611       -0.91783
C          0.95795        0.38947        0.52473
H          0.56684        0.36408       -1.62008
H          0.17383        1.90449       -0.84164
C         -1.46717       -0.91916        0.34694
H         -1.95462        1.16033       -0.10709
H         -1.77894        0.13717       -1.54281
C         -0.25357       -1.83901        0.15726
H         -1.54891       -0.62904        1.41556
H         -2.40183       -1.46090        0.10855
C          2.32409        1.09434        0.64797
C          2.24530       -1.70168       -0.28057
H          4.35790       -1.38910       -0.71397
H          3.92350       -1.13984        0.99400
H          0.37394        0.69889        1.41757
C          3.39979        0.53169       -0.28981
H          2.18816        2.18251        0.48223
H          2.68327        0.98443        1.69408
C          3.57515       -0.97279       -0.04943
H          3.11502        0.70400       -1.35070
H          4.35848        1.06711       -0.13385
H          1.29765       -1.42659        1.63533
H          2.35373       -2.78948       -0.09141
H          1.97245       -1.60825       -1.35533
