16
CIS-1,4-HEXADIENE.gamout	Energy:    -234.4454955
C          5.29903        3.10102        2.55338
C          4.83638        1.99273        1.94886
C          3.70971        1.95123        0.94002
C          2.60073        1.00315        1.33771
C          1.29495        1.29413        1.52094
C          0.61520        2.62662        1.37349
H          6.12774        3.05587        3.27478
H          4.86701        4.09310        2.34644
H          5.29910        1.01910        2.19201
H          3.32284        2.97441        0.76817
H          4.13016        1.60363       -0.03429
H          2.91258       -0.04334        1.49729
H          0.63614        0.45818        1.81370
H          0.11322        2.91765        2.32067
H          1.31152        3.44006        1.09784
H         -0.18295        2.58563        0.60058
