12
CIS-2-BUTENE.gamout	Energy:    -157.1097602
C          1.17591        1.41970        0.58061
C          2.47531        1.05033        0.60981
C          3.66690        1.91133        0.92438
C          0.60351        2.78173        0.85955
H          0.43932        0.63883        0.32434
H          2.70132       -0.00454        0.37642
H          3.39249        2.95793        1.15242
H          4.22992        1.51183        1.79516
H          4.38209        1.92677        0.07404
H         -0.11693        2.74393        1.70469
H          1.37881        3.52888        1.11001
H          0.03528        3.16232       -0.01598
