19
CIS-BETA-METHYLSTYRENE.gamout	Energy:    -348.7179666
C          3.32657        2.89026        1.94272
C          3.62507        3.24563        3.28046
C          2.60947        3.61975        4.17382
C          1.97241        2.95265        1.53302
C          4.34785        2.50098        0.94919
C          0.95694        3.32314        2.42418
C          1.27073        3.65289        3.75250
C          5.49069        1.78856        1.11533
C          6.01377        1.11933        2.35346
H          4.67113        3.27197        3.61266
H          2.86724        3.89702        5.20650
H          1.71791        2.70129        0.49275
H          4.11097        2.80396       -0.08505
H         -0.08765        3.35508        2.08158
H          0.47742        3.95304        4.44971
H          6.09425        1.61533        0.20612
H          6.98396        1.55500        2.67861
H          6.21995        0.05152        2.13361
H          5.30876        1.16076        3.20253
