6
CIS-1,2-DIFLUOROETHYLENE.gamout	Energy:    -276.8622835
C          0.49922        0.87408       -0.00000
C          1.84115        0.87406        0.00000
F          2.56953       -0.25969       -0.00000
F         -0.22911       -0.25968        0.00000
H         -0.09315        1.79946       -0.00000
H          2.43351        1.79944        0.00000
