24
CIS-1,4-DIMETHYLCYCLOHEXANE.gamout	Energy:    -314.2814081
C          0.50798        2.87473        1.94168
C          2.02548        2.99805        2.11912
C          2.79970        2.58952        0.85279
C          2.54183        2.19745        3.32727
C          4.31512        2.77219        1.03551
C          4.05617        2.37988        3.52079
C          4.87136        2.01585        2.26087
H          0.21216        1.82418        1.74009
H         -0.02955        3.20682        2.85140
H          0.15499        3.49098        1.09198
H          2.26651        4.06907        2.31379
H          2.56368        1.53062        0.60662
H          2.45296        3.19190       -0.01200
H          2.00466        2.51069        4.24609
H          2.30001        1.12170        3.18104
H          4.85879        2.46151        0.11959
H          4.52077        3.85643        1.16683
H          4.25164        3.44410        3.77367
H          4.41099        1.78243        4.38548
C          4.94417        0.49726        2.03069
H          5.91226        2.36801        2.42398
H          5.39585       -0.01093        2.90482
H          3.94634        0.04523        1.86472
H          5.56450        0.26470        1.14367
