22
CIS-1-PHENYL-1-BUTENE.gamout	Energy:    -388.0062446
C          6.31386        1.80959        5.72582
C          5.31563        0.82569        5.70259
C          6.26381        2.87170        4.80772
C          4.27222        0.90508        4.76905
C          4.20107        1.96856        3.83710
C          5.22275        2.94682        3.87833
C          3.09138        2.02199        2.87010
C          2.85039        3.00274        1.96660
C          1.71652        3.03892        0.97384
C          0.77152        1.84025        1.02346
H          7.13198        1.74856        6.45588
H          5.35158       -0.00977        6.41765
H          7.04584        3.64453        4.81740
H          3.49486        0.12611        4.76157
H          5.19561        3.77722        3.16061
H          2.40454        1.16166        2.91097
H          3.53278        3.86727        1.92867
H          2.15421        3.14168       -0.04539
H          1.14472        3.98374        1.12270
H          0.28838        1.75418        2.01685
H          1.31788        0.89619        0.82829
H         -0.02921        1.93265        0.26530
