6
CIS-1,2-DICHLOROETHYLENE.gamout	Energy:    -997.5452696
C          2.15525        1.50679        0.12044
C          0.81197        1.45507        0.08995
Cl         3.21293        0.13322        0.07382
H          2.67129        2.47509        0.17929
H          0.22036        2.38045        0.12382
Cl        -0.13377        0.00467       -0.00255
