27
CLOFENAMIC_ACID.gamout	Energy:   -1625.7867567
Cl         2.65549        0.05758        3.51777
Cl         5.19028        1.28106        2.00001
O         -3.26606       -1.35320        3.61954
O         -1.25879       -0.32732        3.66725
N          0.48330       -0.85077        1.72885
C         -0.38202       -1.85278        1.33241
C          1.57940       -0.34111        1.03034
C         -1.64081       -2.02725        2.00289
C         -0.04063       -2.76245        0.29735
C          2.69233        0.15009        1.77045
C          1.61276       -0.23597       -0.38269
C         -2.51431       -3.05130        1.56697
C         -0.92040       -3.76573       -0.10225
C         -2.17785       -3.90846        0.51921
C          3.80439        0.69698        1.09840
C          2.72686        0.29790       -1.03848
C          3.83061        0.76208       -0.30503
C         -2.00207       -1.16460        3.14185
H          0.23367       -0.41601        2.63614
H          0.94928       -2.67935       -0.16349
H          0.73198       -0.55566       -0.95758
H         -3.47494       -3.16676        2.08116
H         -0.61995       -4.45770       -0.90313
H         -2.87525       -4.69241        0.19882
H          2.73011        0.36679       -2.13677
H          4.70911        1.17741       -0.81037
H         -3.36744       -0.73398        4.37373
