17
COUMARIN.gamout	Energy:    -496.6959298
O         -3.54389        3.54951        0.74799
C         -2.50043        2.94091        0.88652
C         -1.32509        3.38342        1.63537
O         -2.39515        1.67899        0.26954
C         -0.20099        2.61324        1.72446
C         -0.13469        1.32651        1.07664
C          0.99255        0.47097        1.12065
C         -1.27697        0.89967        0.35048
C          0.97886       -0.76032        0.46511
C         -0.16899       -1.16058       -0.24967
C         -1.29891       -0.33867       -0.31171
H         -1.40258        4.36671        2.11786
H          0.67367        2.96401        2.29284
H          1.88203        0.79277        1.68059
H          1.85892       -1.41602        0.50532
H         -0.18269       -2.13014       -0.76704
H         -2.20010       -0.63501       -0.86358
