21
CUMENE.gamout	Energy:    -349.9449196
C          1.05359        0.95027        0.97431
C          1.63962        1.86644        2.06678
C          1.17441        1.42939        3.47111
C          3.15811        1.97353        1.97048
C          3.99065        0.84726        2.14299
C          3.77151        3.21313        1.70354
C          5.38674        0.95689        2.05119
C          5.16773        3.33083        1.61128
C          5.98103        2.20124        1.78520
H          1.44226       -0.08362        1.06556
H          1.31213        1.31909       -0.03662
H         -0.05061        0.90333        1.05386
H          1.24180        2.88879        1.89252
H          0.06774        1.42665        3.53005
H          1.55894        2.11344        4.25114
H          1.52473        0.40611        3.71423
H          3.54473       -0.13515        2.35370
H          3.14030        4.10391        1.56748
H          6.01575        0.06500        2.18978
H          5.62377        4.31031        1.40324
H          7.07373        2.28858        1.71227
