22
CYCLOHEPTANOL.gamout	Energy:    -350.1552286
O         -2.11450        1.30497       -0.74859
C         -3.01171        0.20583       -0.49570
C         -3.66115        0.47928        0.87084
C         -4.01603        0.05833       -1.64673
C         -4.92602        1.35274        0.84447
C         -5.11073       -1.00202       -1.44765
C         -6.18663        0.69996        0.19106
C         -6.02949       -0.77307       -0.22071
H         -1.77980        1.22735       -1.65894
H         -2.41770       -0.73509       -0.41260
H         -2.88888        0.96685        1.49807
H         -3.88145       -0.48958        1.36211
H         -4.47923        1.05266       -1.81585
H         -3.45860       -0.18084       -2.57678
H         -4.69037        2.30917        0.33662
H         -5.16245        1.62521        1.89208
H         -4.65331       -2.01127       -1.38557
H         -5.72856       -1.00915       -2.36877
H         -7.03525        0.77056        0.89704
H         -6.49461        1.28925       -0.69742
H         -5.65860       -1.35717        0.64546
H         -7.03227       -1.18896       -0.44427
