16
CYCLOPENTANETHIOL.gamout	Energy:    -594.5313665
S          0.01140        2.67193        1.64511
C          1.77119        2.12845        1.75313
C          2.78602        2.98263        0.97353
C          4.07849        2.12954        0.98450
C          3.61194        0.64746        1.17426
C          2.06663        0.69927        1.26537
H         -0.09086        2.54224        0.29015
H          1.98615        2.19811        2.84125
H          2.41574        3.11613       -0.06468
H          2.91500        3.99094        1.40727
H          4.66730        2.26511        0.05705
H          4.73795        2.43823        1.81969
H          3.94945       -0.00481        0.34651
H          4.04257        0.22256        2.10250
H          1.61197        0.56611        0.26136
H          1.63454       -0.07329        1.92661
