11
CYCLOPROPYLAMINE.gamout	Energy:    -173.1295625
N          0.37301       -1.14023       -0.50817
C         -0.66628       -0.51178        0.27676
C         -1.31843        0.74671       -0.23123
C         -2.14067       -0.52927       -0.10893
H         -0.44958       -0.54019        1.35713
H         -1.04233        1.07896       -1.24348
H         -1.50192        1.56931        0.47397
H         -2.90037       -0.59443        0.68445
H         -2.40975       -1.04893       -1.04055
H          0.28843       -0.90700       -1.50300
H          0.33701       -2.16326       -0.43020
