13
CYCLOPENTENE.gamout	Energy:    -195.1880099
C          0.69239        2.15141        1.28011
C          1.91848        3.07630        0.99754
C          3.11031        2.15374        1.11611
C          2.75572        0.88782        1.41052
C          1.25912        0.72132        1.54565
H          0.11290        2.51542        2.15038
H         -0.00894        2.14883        0.42360
H          1.87081        3.54697       -0.00879
H          1.98419        3.92010        1.71853
H          4.14537        2.49628        0.97440
H          3.46186        0.05562        1.54173
H          0.86969       -0.02923        0.82353
H          0.98405        0.33779        2.55217
