18
CYCLOHEXANE.gamout	Energy:    -235.7101577
C          0.00002       -1.46804        0.22954
C         -1.27097        0.73409        0.22951
C          1.27094        0.73405        0.22951
C          0.00001        1.46769       -0.22952
C         -1.27065       -0.73389       -0.22948
C          1.27066       -0.73389       -0.22949
H          0.00002       -1.53760        1.34017
H         -1.33103        0.76839        1.33993
H          1.33099        0.76835        1.33994
H          0.00002        1.53685       -1.34016
H         -1.33035       -0.76799       -1.33993
H          1.33036       -0.76798       -1.33994
H          0.00002       -2.50990       -0.15013
H         -2.17308        1.25484       -0.15005
H          2.17304        1.25479       -0.15004
H          0.00002        2.50957        0.14986
H         -2.17278       -1.25467        0.14977
H          2.17279       -1.25465        0.14976
