22
CYCLOOCTENE.gamout	Energy:    -313.0423385
C          3.86404        1.68937        2.40949
C          2.64158        1.02715        1.72647
C          4.71663        2.61431        1.52183
C          1.26765        1.66681        2.01504
C          0.99927        3.05180        1.37569
C          1.75701        4.21323        1.98342
C          3.04095        4.53203        1.71176
C          3.93245        3.73690        0.79486
H          4.53877        0.89918        2.79758
H          3.52055        2.25103        3.30267
H          2.80018        0.97931        0.62650
H          2.58143       -0.03068        2.05435
H          5.51228        3.06909        2.14967
H          5.24207        2.01081        0.75120
H          0.48203        0.97220        1.64961
H          1.12529        1.73836        3.11512
H          1.22339        2.98190        0.28857
H         -0.08711        3.26128        1.44747
H          1.20614        4.84204        2.70279
H          3.48648        5.40208        2.22368
H          3.32346        3.28271       -0.01468
H          4.66152        4.40741        0.29539
