19
CYCLOHEPTENE.gamout	Energy:    -273.7590296
C          1.54527        0.89200        1.93149
C          0.64677        2.14206        1.91203
C          1.40487        3.48211        1.89145
C          2.75568        0.97837        2.88115
C          2.61847        3.52698        0.94448
C          3.91053        1.79714        2.34360
C          3.85386        2.83817        1.48461
H          0.92911        0.00882        2.19788
H          1.93059        0.69449        0.90919
H         -0.01995        2.07595        1.02682
H         -0.02204        2.13301        2.79813
H          0.69497        4.29237        1.62597
H          1.76545        3.72122        2.91401
H          2.43491        1.36222        3.87759
H          3.13321       -0.04640        3.07913
H          2.34335        3.11272       -0.05358
H          2.88444        4.58651        0.74832
H          4.91353        1.47267        2.66485
H          4.81596        3.27053        1.16528
