10
CYCLOBUTENE.gamout	Energy:    -155.8639553
C          0.65887        2.27399        0.91378
C          2.23148        2.27641        0.98397
C          2.12390        0.75799        0.99188
C          0.76997        0.75578        0.93216
H          0.15317        2.73380        1.78860
H          0.23328        2.71799       -0.01044
H          2.73611        2.72219        0.10133
H          2.65592        2.73741        1.90033
H          2.88297       -0.03815        1.03226
H          0.01279       -0.04274        0.90560
