24
CYCLOOCTANE.gamout	Energy:    -314.2633513
C          1.04228        2.72252        1.36124
C          1.41266        1.25950        1.68968
C          1.58052        3.76554        2.36894
C          2.85133        0.98833        2.17305
C          2.66345        4.70709        1.79912
C          4.01113        1.46494        1.27300
C          3.75682        4.07169        0.91644
C          4.55791        2.89210        1.50834
H         -0.06273        2.78929        1.29627
H          1.40207        2.97255        0.34231
H          1.21057        0.63585        0.79292
H          0.72371        0.88189        2.47580
H          1.98078        3.24603        3.26317
H          0.74839        4.39102        2.75087
H          2.93766       -0.10960        2.31083
H          2.99314        1.41465        3.18927
H          3.15072        5.23740        2.64467
H          2.17037        5.49950        1.19578
H          3.73689        1.34851        0.20094
H          4.86115        0.77014        1.43491
H          4.46643        4.88502        0.65708
H          3.32354        3.75283       -0.05611
H          5.57253        2.92248        1.05974
H          4.71561        3.04619        2.59915
