21
CYCLOHEXYL_FORMATE.gamout	Energy:    -424.1467453
O          0.53795        1.70592       -0.72435
O          2.26710        3.10530       -0.37865
C         -0.46819        0.85760       -0.10235
C         -1.85238        1.31645       -0.56379
C         -0.18840       -0.59661       -0.49069
C         -2.95442        0.36967       -0.05503
C         -1.29374       -1.53761        0.01857
C         -2.67932       -1.08581       -0.46513
C          1.39431        2.39506        0.06292
H         -0.38268        0.97395        1.00312
H         -1.85494        1.33650       -1.67413
H         -2.03440        2.35528       -0.22489
H          0.80334       -0.90014       -0.10185
H         -0.12803       -0.64760       -1.59836
H         -3.93538        0.70732       -0.44213
H         -3.01772        0.43198        1.05381
H         -1.28153       -1.56135        1.13076
H         -1.07626       -2.57113       -0.31481
H         -3.46601       -1.75423       -0.06192
H         -2.72737       -1.17068       -1.57273
H          1.20512        2.23607        1.16063
