19
CYCLOHEXANOL.gamout	Energy:    -310.8841697
C         -0.99425       -0.00606        0.32563
C         -0.27510       -1.25913       -0.17672
C          1.21336       -1.25070        0.21117
C          1.91753        0.02611       -0.27537
C          1.18649        1.28693        0.21310
C         -0.29939        1.26369       -0.18741
O         -2.35925       -0.09800       -0.10974
H         -0.95713       -0.00292        1.44351
H         -0.78365       -2.15911        0.22139
H         -0.38316       -1.29238       -1.28241
H          1.30953       -1.32105        1.31723
H          1.71193       -2.15070       -0.20061
H          2.97095        0.03800        0.06869
H          1.94973        0.02780       -1.38719
H          1.26768        1.34877        1.32093
H          1.67311        2.19949       -0.18514
H         -0.40146        1.28951       -1.29380
H         -0.81870        2.16286        0.20719
H         -2.84052        0.69104        0.19641
