11
CYCLOPENTADIENE.gamout	Energy:    -193.9669310
C          2.58973        1.30783        0.73391
C          1.32192        0.50338        0.83913
C          2.81508        1.80440        2.13684
C          0.88293        0.53734        2.13008
C          1.80945        1.34548        2.93561
H          2.49461        2.14572        0.00486
H          3.44465        0.69723        0.36246
H          0.84839       -0.01613       -0.00273
H          3.66027        2.43373        2.44068
H         -0.01767        0.04409        2.51817
H          1.69827        1.54100        4.01021
