15
CYCLOPENTANE.gamout	Energy:    -196.4158283
C          1.18932        2.99459        1.03914
C          2.72477        3.03103        0.93551
C          0.84336        1.48521        1.13038
C          3.16608        1.91269        1.89618
C          2.13146        0.78237        1.66477
H          0.87095        3.51626        1.96619
H          0.68359        3.49956        0.19410
H          3.04119        2.78699       -0.10139
H          3.15466        4.01945        1.18801
H         -0.03068        1.30505        1.78541
H          0.56911        1.09013        0.13177
H          4.20801        1.58019        1.72777
H          3.10585        2.27828        2.94305
H          1.93827        0.20557        2.58947
H          2.51514        0.05820        0.91875
