10
CYCLOPROPYL_CYANIDE.gamout	Energy:    -209.9916956
N          2.13514       -0.00072       -0.24940
C         -0.34741        0.00032        0.57520
C         -1.40940        0.75178       -0.22674
C         -1.40882       -0.75184       -0.22686
C          1.02247        0.00058        0.12135
H         -0.45430        0.00026        1.67100
H         -1.07306        1.27100       -1.13418
H         -2.17373        1.28518        0.35466
H         -2.17269       -1.28600        0.35444
H         -1.07196       -1.27063       -1.13436
