27
CYCLONONANE.gamout	Energy:    -353.5443941
C          3.38946        4.36494        3.57629
C          1.97384        3.76434        3.64489
C          4.32844        3.73150        2.53411
C          1.11348        3.96089        2.36765
C          0.70767        2.68816        1.59799
C          1.84354        1.93848        0.87026
C          2.69369        0.94868        1.72001
C          4.21459        1.20609        1.77276
C          4.69362        2.24654        2.80429
H          3.30946        5.45590        3.37487
H          3.86101        4.28180        4.57996
H          2.04258        2.68485        3.88989
H          1.45196        4.22275        4.51010
H          3.88476        3.83739        1.52315
H          5.25896        4.33527        2.50357
H          0.18410        4.49748        2.64439
H          1.63840        4.64253        1.66296
H         -0.04915        2.98480        0.84037
H          0.17871        1.98755        2.28223
H          1.38866        1.37240        0.03310
H          2.50608        2.68349        0.38219
H          2.30386        0.90886        2.75864
H          2.53711       -0.07202        1.31859
H          4.71893        0.24518        2.01089
H          4.57812        1.48548        0.75886
H          4.31353        1.94650        3.80543
H          5.79555        2.16006        2.88052
