19
CYCLOHEXANETHIOL.gamout	Energy:    -633.8258546
S         -3.38986        0.32866        2.75039
C         -3.86314        1.01717        1.08986
C         -5.09946        1.90707        1.29353
C         -4.12876       -0.07387        0.04440
C         -5.56397        2.51845       -0.04170
C         -4.58973        0.53917       -1.29167
C         -5.82186        1.43754       -1.10223
H         -2.30768       -0.39056        2.33315
H         -3.01990        1.65489        0.74984
H         -5.91874        1.29261        1.72719
H         -4.87365        2.70632        2.02671
H         -3.21620       -0.68438       -0.10904
H         -4.90898       -0.75989        0.43786
H         -6.47710        3.12496        0.12411
H         -4.78424        3.21891       -0.41327
H         -4.80792       -0.26836       -2.01874
H         -3.75956        1.13837       -1.72675
H         -6.68695        0.81342       -0.78679
H         -6.10641        1.90585       -2.06528
