20
CYCLOHEPTANONE.gamout	Energy:    -348.9563239
C         -3.13211        0.19166       -0.11462
C         -3.86418        1.41988        0.44566
C         -3.60739       -0.24590       -1.51533
C         -5.36540        1.25098        0.70976
C         -5.91322       -0.17100        0.75357
C         -6.00653       -0.82215       -0.66325
C         -5.12769       -0.16480       -1.74264
O         -6.08367        2.22856        0.88986
H         -2.04542        0.40663       -0.15070
H         -3.23837       -0.65241        0.59767
H         -3.74699        2.30988       -0.20570
H         -3.41916        1.71011        1.42249
H         -3.11326        0.38293       -2.28380
H         -3.25865       -1.28327       -1.70059
H         -6.90924       -0.12763        1.22682
H         -5.25453       -0.77854        1.40752
H         -7.05932       -0.75859       -1.00106
H         -5.76976       -1.90333       -0.58948
H         -5.43138        0.89931       -1.84565
H         -5.36166       -0.63045       -2.71984
