9
CYCLOPROPANE.gamout	Energy:    -117.8124733
C         -0.02622        0.87353       -0.00000
C         -0.74384       -0.45950       -0.00000
C          0.76994       -0.41419        0.00000
H         -0.04343        1.47319       -0.92188
H         -0.04342        1.47318        0.92188
H         -1.25255       -0.77394        0.92275
H         -1.25256       -0.77394       -0.92274
H          1.29671       -0.69769       -0.92266
H          1.29670       -0.69769        0.92267
