14
CYCLOPENTANONE.gamout	Energy:    -270.3899737
C          0.86140        1.97350       -0.14520
C          2.28248        1.50012        0.20851
C          2.30054        0.00718       -0.20225
H          2.45286        1.59411        1.30139
H          3.07502        2.08563       -0.29374
C          0.88874       -0.49858        0.14401
H          3.10344       -0.55976        0.30468
H          2.47936       -0.08307       -1.29409
C         -0.02453        0.72739       -0.00201
H          0.82208       -0.82322        1.20621
H          0.51740       -1.33970       -0.47029
H          0.79248        2.29525       -1.20816
H          0.46816        2.80671        0.46615
O         -1.24419        0.71401       -0.00349
