13
D-ALANINE.gamout	Energy:    -323.5436376
O          1.84206       -0.16761       -1.48058
O          1.20725        1.76345       -0.48099
N         -0.73081        2.20817       -2.57386
C         -0.13801        0.89681       -2.34167
C         -1.21592       -0.09660       -1.86646
C          1.02045        0.91157       -1.33232
H          0.27794        0.52721       -3.30248
H         -2.04681       -0.09835       -2.59616
H         -0.80917       -1.12036       -1.77470
H         -1.61750        0.21017       -0.87986
H         -1.09492        2.59167       -1.69284
H         -0.02314        2.87477       -2.90014
H          2.53113       -0.09787       -0.78532
