17
D-PROLINE.gamout	Energy:    -400.8978050
O         -2.21022        1.09919       -0.07687
O         -2.11184       -1.16321       -0.14961
N          0.71695       -1.07304       -0.18408
C         -0.06583        0.11767       -0.48316
C          0.65834        1.23430        0.32315
C          2.09532        0.67525        0.54002
C          2.11514       -0.65408       -0.24733
C         -1.54534       -0.08665       -0.20216
H         -0.02513        0.40135       -1.57250
H          0.14439        1.40664        1.28590
H          0.65283        2.19035       -0.23003
H          2.87922        1.37355        0.19295
H          2.27138        0.48088        1.61468
H          2.46927       -0.46779       -1.29464
H          2.77722       -1.41854        0.20163
H          0.47138       -1.88913       -0.75007
H         -3.15866        0.87478        0.03550
