14
DECAFLUOROBUTANE.gamout	Energy:   -1150.0440693
C         51.99264       37.06310        0.08935
C         50.67420       36.19763        0.08875
C         50.89443       34.64602       -0.07312
F         49.87412       36.60008       -0.93248
F         50.03084       36.39824        1.26422
C         51.77509       38.61431       -0.07296
F         52.63522       36.86219        1.26528
F         52.79221       36.65979       -0.93130
F         49.72581       34.01992        0.16491
F         51.81106       34.20087        0.80647
F         51.29856       34.35212       -1.32050
F         52.94471       39.23885        0.16466
F         51.37180       38.90771       -1.32064
F         50.85954       39.06174        0.80628
