26
DELTA-3-CARENE.gamout	Energy:    -390.3966968
C         -0.00496        0.55021       -1.62278
C          0.05838       -0.78619       -1.43463
C         -0.29000       -1.44237       -0.11716
C         -0.39751        1.56746       -0.58392
C         -0.73841        0.99691        0.78533
C         -0.67960       -0.50712        1.02000
C         -2.01768        0.21989        1.05823
C         -3.03092        0.01478       -0.05398
C         -2.66173        0.41110        2.42227
H         -0.39266        1.61853        1.62354
H         -0.30311       -0.81960        2.00609
C          0.47948       -1.72779       -2.53459
H          0.26052        0.95122       -2.61482
H         -1.09542       -2.19326       -0.29641
H          0.58506       -2.04952        0.20456
H         -1.24180        2.18515       -0.97058
H          0.44145        2.28960       -0.46877
H         -3.70179        0.89497       -0.13866
H         -3.67641       -0.86242        0.15928
H         -2.55733       -0.14345       -1.03957
H         -3.26042       -0.47884        2.70494
H         -3.34418        1.28576        2.41780
H         -1.90857        0.57746        3.21627
H         -0.31019       -2.48420       -2.73312
H          1.39439       -2.29534       -2.25638
H          0.68371       -1.18736       -3.47691
