22
DI-N-PROPYLDISULFIDE.gamout	Energy:   -1033.1414768
C          0.34535        0.42316       -0.74539
C          1.26514        1.03674        0.32157
C          1.15303        2.56444        0.37072
S          2.29562        3.22096        1.67623
S          1.91165        5.27012        1.67316
C          3.05553        5.92767        0.36997
C          2.93887        7.45467        0.32146
C          3.85935        8.06942       -0.74385
H          0.43683       -0.68033       -0.76225
H         -0.71699        0.67175       -0.54936
H          0.59833        0.79777       -1.75777
H          2.31792        0.74977        0.11670
H          1.01267        0.61882        1.31861
H          0.12208        2.88371        0.62106
H          1.43072        3.01098       -0.60510
H          4.08688        5.61111        0.62215
H          2.78099        5.48058       -0.60649
H          1.88577        7.73916        0.11463
H          3.18824        7.87323        1.31906
H          3.76589        9.17273       -0.76185
H          4.92177        7.82298       -0.54558
H          3.60898        7.69363       -1.75650
