23
DI-N-PROPYL_SULFONE.gamout	Energy:    -785.3240603
C         -0.10843        0.46023       -0.01697
C          1.25066        1.18034       -0.01177
C          1.08766        2.70398       -0.00732
S          2.72524        3.55223       -0.00064
C          2.27829        5.34087        0.00564
O          3.40086        3.23438        1.29630
O          3.40717        3.24483       -1.29666
C          3.52540        6.22823        0.01323
C          3.16716        7.72314        0.01917
H          0.03292       -0.63752       -0.02012
H         -0.70724        0.72184        0.87867
H         -0.70322        0.72750       -0.91361
H          1.84138        0.88396       -0.90089
H          1.83775        0.87850        0.87793
H          0.55577        3.06184        0.89688
H          0.55977        3.06780       -0.91154
H          1.65757        5.50071       -0.89926
H          1.65319        5.49288        0.90889
H          4.13669        5.98065        0.90383
H          4.14248        5.98942       -0.87579
H          4.08528        8.34139        0.02566
H          2.57831        8.00376       -0.87754
H          2.57181        7.99513        0.91433
