22
DI-N-PROPYLAMINE.gamout	Energy:    -292.2178681
C          0.03060       -0.17854        0.05694
C          1.30149        0.67766       -0.00061
C          1.02688        2.18562       -0.02243
N          2.27014        2.95267       -0.06143
C          2.10715        4.40407       -0.02416
C          3.46325        5.11782        0.01054
C          3.35166        6.64729        0.05133
H          0.27703       -1.25762        0.09015
H         -0.57268        0.05401        0.95807
H         -0.61592       -0.01371       -0.82948
H          1.90411        0.41797       -0.89524
H          1.93995        0.44710        0.88075
H          0.38219        2.45963        0.85549
H          0.43539        2.44453       -0.92809
H          2.88922        2.65023        0.70045
H          1.54920        4.71182       -0.93593
H          1.48607        4.74770        0.84642
H          4.02752        4.76419        0.90144
H          4.04938        4.79535       -0.87461
H          4.35260        7.11864        0.09026
H          2.83321        7.04144       -0.84665
H          2.78565        6.98882        0.94171
