27
DI-N-BUTYL_ETHER.gamout	Energy:    -390.6389584
C          3.43645        5.18799        0.55503
O          3.34745        6.25816        1.48732
C          4.59841        6.83090        1.84681
C          2.02793        4.67356        0.26344
C          4.35251        7.97902        2.82363
C          1.98368        3.51059       -0.74146
C          5.63727        8.68567        3.28600
C          0.55983        3.00913       -1.02023
C          5.37179        9.84169        4.26025
H          3.92775        5.53726       -0.38736
H          4.07475        4.36643        0.96618
H          5.12822        7.20368        0.93458
H          5.26062        6.05792        2.31103
H          1.41966        5.52255       -0.11438
H          1.56604        4.36160        1.22389
H          3.80292        7.58057        3.70245
H          3.67433        8.71111        2.33645
H          2.45322        3.82585       -1.69870
H          2.60076        2.66621       -0.36382
H          6.31649        7.94866        3.76726
H          6.18709        9.07309        2.40066
H          0.56256        2.17315       -1.74658
H          0.07069        2.64568       -0.09365
H         -0.07612        3.81551       -1.43914
H          4.72971       10.61800        3.79648
H          4.85784        9.48804        5.17726
H          6.31502       10.33047        4.57285
