28
DI-N-BUTYLAMINE.gamout	Energy:    -370.7880438
C         -0.12090       10.12698       -0.11744
C          1.14141        9.25561       -0.07577
C          2.43585       10.07010        0.06104
C          3.70870        9.21599        0.05434
N          4.90840       10.04352        0.15396
C          6.17139        9.31644        0.06138
C          7.36882       10.27405        0.05264
C          8.72597        9.56668       -0.06781
C          9.91347       10.53711       -0.12112
H         -1.03294        9.51003       -0.23309
H         -0.23368       10.72216        0.81161
H         -0.08817       10.83932       -0.96710
H          1.19113        8.63902       -0.99932
H          1.06341        8.53622        0.76802
H          2.41324       10.67075        0.99498
H          2.49279       10.80061       -0.77743
H          3.71166        8.56659       -0.86220
H          3.69715        8.51985        0.92210
H          4.88082       10.78387       -0.55772
H          6.24728        8.63570        0.93793
H          6.22179        8.65779       -0.84710
H          7.25285       10.98179       -0.79885
H          7.33943       10.89075        0.97580
H          8.85989        8.86936        0.78734
H          8.73090        8.93412       -0.98181
H         10.87119        9.99212       -0.22594
H          9.82513       11.23080       -0.98188
H          9.97741       11.15306        0.79906
