21
DI-N-PROPYL_SULFIDE.gamout	Energy:    -635.0189453
S         50.90062       -0.03111        0.00001
C         49.35357        0.97065        0.00006
C         50.22487       -1.74534       -0.00004
C         51.37203       -2.76255        0.00008
C         50.86850       -4.21309        0.00004
C         49.70085        2.46467       -0.00009
C         48.45641        3.36266       -0.00007
H         48.75178        0.71545       -0.89797
H         48.75187        0.71567        0.89822
H         49.58534       -1.88434        0.89735
H         49.58548       -1.88440       -0.89752
H         52.01531       -2.58833       -0.88773
H         52.01508       -2.58825        0.88804
H         51.71072       -4.93250        0.00013
H         50.24773       -4.42306        0.89496
H         50.24796       -4.42302       -0.89505
H         50.32714        2.69090        0.88805
H         50.32696        2.69067       -0.88841
H         48.73725        4.43453       -0.00019
H         47.82524        3.18329       -0.89452
H         47.82546        3.18345        0.89456
