34
DI-N-AMYLAMINE.gamout	Energy:    -449.3584162
C        104.23956        9.98128       -0.00474
N        103.03673        9.15274       -0.03285
C        103.24972        7.70815        0.00159
C        103.87407       11.47142       -0.02605
C        101.91137        6.95694       -0.01981
C        105.07507       12.42863       -0.00281
C        102.04034        5.42524        0.00315
C        104.67092       13.91189        0.00795
C        100.68524        4.69796        0.00550
C        105.86219       14.87673        0.03916
C        100.80946        3.16902        0.03435
H        104.89507        9.77152        0.88289
H        104.84833        9.73039       -0.90130
H        102.39877        9.43200        0.72187
H        103.84970        7.42731       -0.89202
H        103.84848        7.37496        0.89131
H        103.24716       11.66731       -0.92165
H        103.22758       11.68794        0.85458
H        101.30955        7.28004        0.85908
H        101.34231        7.27687       -0.91770
H        105.70260       12.21519        0.89117
H        105.72759       12.23647       -0.88379
H        102.63237        5.08689       -0.87588
H        102.62177        5.11386        0.89888
H        104.04702       14.12746       -0.88694
H        104.01646       14.10457        0.88611
H        100.09175        5.03666        0.88243
H        100.10398        5.00508       -0.89073
H        105.52754       15.93261        0.04834
H        106.48972       14.71694        0.93999
H        106.51601       14.74149       -0.84676
H         99.81469        2.68197        0.03821
H        101.36335        2.79323       -0.84998
H        101.35424        2.82737        0.93793
