28
DI-N-BUTYL_KETONE.gamout	Energy:    -428.7356776
C         -1.29938       -0.66932        0.00034
C         -2.55785        0.19947        0.00018
C         -3.86355       -0.60735       -0.00004
C         -5.11727        0.27737       -0.00046
C          0.00026        0.12926        0.00026
O          0.00186        1.35443        0.00021
C          1.29891       -0.67089        0.00006
C          2.55720        0.19816       -0.00006
C          3.86335       -0.60735       -0.00022
C          5.11633        0.27859       -0.00019
H         -1.27799       -1.35131        0.88075
H         -1.27773       -1.35132       -0.88006
H         -2.52368        0.87211        0.88214
H         -2.52350        0.87198       -0.88188
H         -3.88288       -1.27762       -0.88728
H         -3.88349       -1.27750        0.88727
H         -5.14327        0.93251        0.89381
H         -5.14279        0.93239       -0.89483
H         -6.04314       -0.33002       -0.00067
H          1.27729       -1.35287        0.88053
H          1.27695       -1.35290       -0.88037
H          2.52216        0.87080       -0.88199
H          2.52212        0.87067        0.88197
H          3.88407       -1.27764        0.88698
H          3.88393       -1.27743       -0.88758
H          5.14161        0.93386       -0.89444
H          5.14169        0.93365        0.89421
H          6.04280       -0.32792       -0.00031
