34
DI-N-BUTYL_ACETAL.gamout	Energy:    -544.3779966
O        103.57383       29.36160        0.41952
C        102.41097       29.83993       -0.27594
C        104.65175       28.95782       -0.42225
O        101.31988       29.83644        0.59506
C        102.58512       31.27060       -0.77342
C        105.66943       28.16780        0.39898
C        100.80962       28.55353        0.98978
C        106.91565       27.77937       -0.41225
C        101.40024       28.04450        2.30595
C        107.93120       26.95364        0.38692
C        100.74342       26.74246        2.79005
C        101.36471       26.21743        4.08984
H        102.22237       29.13221       -1.12743
H        104.25781       28.32984       -1.25856
H        105.14755       29.84332       -0.88626
H        101.67918       31.59132       -1.31950
H        103.45305       31.35829       -1.45360
H        102.73986       31.93609        0.09576
H        105.96349       28.77626        1.27985
H        105.17410       27.25732        0.79780
H         99.71169       28.68792        1.09247
H        100.97777       27.81641        0.17086
H        106.60823       27.20311       -1.31241
H        107.40391       28.70054       -0.79746
H        102.49070       27.90014        2.17697
H        101.27672       28.83688        3.07290
H        108.81694       26.70508       -0.22883
H        108.29006       27.50306        1.28127
H        107.48845       25.99900        0.73690
H         99.65333       26.90530        2.93878
H        100.82650       25.96291        2.00149
H        100.88221       25.27907        4.42543
H        102.44652       26.01290        3.95862
H        101.26426       26.96033        4.90673
