27
DI-SEC-BUTYL_ETHER.gamout	Energy:    -390.6435104
O         51.95185       29.55922       -0.00347
C         50.68338       28.92693        0.21717
C         53.04819       28.65992       -0.21983
C         50.53493       28.51676        1.69307
C         49.61500       29.90937       -0.25117
C         53.10489       28.22384       -1.69431
C         54.30563       29.38140        0.25137
C         49.36096       27.56702        1.96046
C         54.08010       27.07182       -1.96491
H         50.62250       28.00614       -0.41204
H         52.90377       27.74832        0.40955
H         51.47814       28.03085        2.01477
H         50.43945       29.43871        2.30434
H         48.59938       29.49287       -0.11448
H         49.75669       30.14777       -1.32119
H         49.68747       30.85147        0.32805
H         52.08455       27.91971       -2.00447
H         53.36557       29.10997       -2.31019
H         55.20191       28.74269        0.13992
H         54.20533       29.66241        1.31576
H         54.45697       30.30524       -0.34139
H         49.34186       27.24663        3.01935
H         48.38552       28.04061        1.73631
H         49.44290       26.65419        1.33563
H         54.02114       26.74020       -3.01877
H         55.12878       27.36494       -1.76473
H         53.84667       26.19774       -1.32312
