27
DI-TERT-BUTYL_SULFIDE.gamout	Energy:    -713.5879773
S          0.65110       -0.70199       -2.90348
C         -0.25923       -1.29642       -4.44611
C          2.39633       -1.39736       -2.74507
C          0.53002       -1.06752       -5.74076
C         -1.50475       -0.39168       -4.43588
C         -0.68848       -2.76526       -4.32188
C          3.35243       -0.78795       -3.77958
C          2.45179       -2.92948       -2.78091
C          2.79245       -0.90374       -1.33986
H          0.89694       -0.02727       -5.80994
H          1.39193       -1.75423       -5.82342
H         -0.12764       -1.26282       -6.61515
H         -2.16636       -0.67117       -5.28051
H         -1.23155        0.67415       -4.54894
H         -2.08360       -0.50598       -3.49949
H          0.18002       -3.44627       -4.31026
H         -1.32560       -3.04436       -5.18843
H         -1.27012       -2.93040       -3.39663
H          4.39351       -1.10633       -3.55803
H          3.11608       -1.11535       -4.80655
H          3.31616        0.31650       -3.75110
H          2.24234       -3.33157       -3.78951
H          1.73301       -3.37273       -2.06788
H          3.47209       -3.26793       -2.49974
H          2.14433       -1.34035       -0.55721
H          3.83812       -1.20545       -1.12936
H          2.73391        0.19862       -1.26755
