26
DIALLYL_MALEATE.gamout	Energy:    -688.6644142
C          0.26027       49.04147       -0.18112
C          1.31714       49.94500        0.38674
C          0.38872       47.73261       -0.48186
O          2.01851       50.56857       -0.58580
O          1.42775       50.15038        1.58260
C          3.00235       51.56157       -0.15252
C          2.42669       52.94821       -0.21609
C          2.32372       53.75500        0.85419
C          1.67316       46.99766       -0.36706
O          1.51134       45.70456       -0.76637
O          2.73416       47.46647        0.01970
C          2.69995       44.86234       -0.71950
C          2.82317       44.15765        0.60010
C          2.74299       42.82291        0.73580
H         -0.72790       49.51627       -0.28669
H         -0.48149       47.15982       -0.83000
H          3.33749       51.30943        0.87037
H          3.84162       51.43681       -0.86310
H          2.10436       53.30477       -1.20977
H          1.92680       54.77567        0.76503
H          2.63184       53.41666        1.85526
H          2.57645       44.14107       -1.54802
H          3.57960       45.51065       -0.90660
H          3.01282       44.79393        1.48023
H          2.86604       42.34370        1.71602
H          2.55871       42.16538       -0.12842
