21
DIBENZOFURAN.gamout	Energy:    -536.9642458
C          0.99453        1.97915        0.08347
C          2.05050        1.05148        0.06747
C          3.35489        1.55338        0.05653
C          1.27519        3.36770        0.08794
C          2.59968        3.85148        0.07657
C          3.68850        2.93659        0.06028
C          5.17074        2.96765        0.04498
C          6.21956        3.92765        0.03902
C          5.56191        1.59994        0.03410
C          7.56350        3.50178        0.02345
C          7.90297        2.12664        0.01345
C          6.88686        1.15520        0.01871
O          4.47595        0.75101        0.04076
H         -0.04998        1.61574        0.09257
H          1.88287       -0.03335        0.06352
H          0.43000        4.07829        0.10062
H          2.76079        4.93986        0.08071
H          6.01151        5.00816        0.04639
H          8.37702        4.24849        0.01893
H          8.96215        1.80903        0.00136
H          7.10112        0.07869        0.01130
