22
DIBENZOPYRROLE.gamout	Energy:    -517.1244337
C          3.40890       -0.88075       -0.33054
C          2.91680        0.25605        0.35764
C          2.59540       -2.00506       -0.57517
C         -0.98006       -2.27181        0.50286
N         -0.53872       -1.02911        0.92701
C          0.09243       -2.94813       -0.16874
C         -2.25787       -2.82303        0.67765
C          0.78605       -0.85311        0.56257
C          1.24558       -2.02229       -0.12969
C          1.59013        0.26921        0.80875
C         -0.19610       -4.24558       -0.67022
C         -1.47789       -4.80589       -0.49944
C         -2.51105       -4.10501        0.17066
H          4.45537       -0.87608       -0.67972
H          3.56975        1.12974        0.54046
H          3.03880       -2.85478       -1.11540
H         -1.10135       -0.34794        1.42956
H         -3.01933       -2.23328        1.20498
H          1.15635        1.12232        1.34664
H          0.56077       -4.84340       -1.19987
H         -1.68990       -5.81352       -0.89419
H         -3.51102       -4.55915        0.29669
