21
DIBENZOTHIOPHENE.gamout	Energy:    -859.9177723
S         -0.00001       -2.15924       -0.00030
C          0.73346        0.40840       -0.00009
C         -0.73340        0.40850       -0.00009
C          1.27335       -0.91319       -0.00020
C         -1.27326       -0.91301       -0.00020
C          1.63321        1.50227        0.00000
C         -1.63329        1.50229        0.00000
C          2.66612       -1.13944       -0.00020
C         -2.66597       -1.13917       -0.00020
C          3.01867        1.28405       -0.00000
C         -3.01886        1.28409       -0.00000
C          3.52969       -0.03253       -0.00010
C         -3.52979       -0.03250       -0.00010
H          1.23701        2.52873        0.00003
H         -1.23740        2.52886        0.00003
H          3.07999       -2.15905       -0.00030
H         -3.07991       -2.15882       -0.00030
H          3.71712        2.13741        0.00003
H         -3.71782        2.13723        0.00003
H          4.61938       -0.19597       -0.00010
H         -4.61961       -0.19611       -0.00010
