6
DIBROMOACETONITRILE.gamout	Energy:   -5279.6794696
Br         1.31185       -1.64007       -0.22057
Br         1.31273        1.64046       -0.22053
N         -2.09220       -0.00316       -0.17323
C          0.45637        0.00037        0.44256
C         -0.95070        0.00065        0.08977
H          0.59415        0.00035        1.53825
