8
DIBROMOACETIC_ACID.gamout	Energy:   -5375.9676149
Br        -1.36002        2.57064        0.90552
Br        -1.71426       -0.67786        0.69209
O          0.97316        0.75180       -0.40294
O          1.71500        0.53216        1.73153
C         -0.64024        0.80985        1.38416
C          0.80990        0.68252        0.93267
H         -0.67367        0.74138        2.48205
H          1.93272        0.65967       -0.58369
