5
DIBROMODIFLUOROMETHANE.gamout	Energy:   -5385.8543683
C         -0.85890       -0.20719        1.01793
Br        -0.48332        1.63445        0.44096
Br         0.76728       -1.12272        1.62603
F         -1.39753       -0.88623       -0.00912
F         -1.75243       -0.18598        2.02158
