8
DICHLOROACETIC_ACID.gamout	Energy:   -1147.9348176
C          0.40883        0.22348        0.20280
C         -1.11315        0.22979       -0.03667
Cl        -1.77093       -1.33701        0.57811
Cl        -1.88372        1.63627        0.73966
O          1.02023       -0.34855       -0.86455
O          0.97745        0.64330        1.18356
H         -1.34094        0.26543       -1.11572
H          1.98121       -0.38510       -0.66925
