18
DICHLONE.gamout	Energy:   -1453.7688518
C          1.66886        0.02698        0.08378
C          0.18276       -0.20032        0.06372
C          2.21027        1.28661        0.10668
Cl         2.64552       -1.39593        0.07622
O         -0.28218       -1.33706        0.04307
C         -0.68452        1.01446        0.06998
C          1.35370        2.52160        0.11379
Cl         3.91414        1.55585        0.12881
C         -2.35890        3.27252        0.08142
C         -0.96875        3.43946        0.09991
C         -2.91549        1.98123        0.05721
C         -2.08150        0.85559        0.05160
C         -0.12474        2.31432        0.09422
O          1.85981        3.64072        0.13485
H         -3.01453        4.15502        0.08589
H         -0.51106        4.43675        0.11873
H         -4.00732        1.85108        0.04268
H         -2.49280       -0.16184        0.03310
