5
DICHLOROFLUOROMETHANE.gamout	Energy:   -1058.6556219
Cl         1.73213        1.48653        0.00426
C          0.16944        0.60515       -0.01206
Cl        -1.22566        1.73280        0.00347
F          0.10099       -0.18038       -1.11535
H          0.11705       -0.01957        0.89820
