21
DICHLORODIISOPROPYL_ETHER.gamout	Energy:   -1231.0861441
O         51.96402       29.64401        0.00332
C         50.71232       29.03403        0.32999
C         53.05665       28.78498       -0.33643
C         50.50738       29.00251        1.84380
C         49.59955       29.85700       -0.32746
C         53.24148       28.72508       -1.85243
C         54.31950       29.34338        0.32544
Cl        51.66155       27.88041        2.70184
Cl        51.87849       27.85699       -2.70182
H         50.68384       27.99733       -0.06656
H         52.86525       27.76099        0.04846
H         50.66481       30.00561        2.28042
H         49.49383       28.64231        2.09298
H         48.60167       29.42647       -0.11516
H         49.75101       29.86824       -1.42127
H         49.61765       30.90161        0.04076
H         53.27684       29.74400       -2.27860
H         54.15966       28.17235       -2.11651
H         55.20448       28.72024        0.09184
H         54.18046       29.35869        1.42090
H         54.51667       30.37813       -0.01739
