5
DICHLORODIFLUOROMETHANE.gamout	Energy:   -1157.8281978
C          0.94840        0.90161        0.00332
Cl         0.05458        2.45376       -0.02624
F          2.26914        1.15146       -0.01152
Cl         0.54292       -0.06519        1.45638
F          0.64326        0.19432       -1.09802
