22
DICYCLOPENTADIENE.gamout	Energy:    -387.9656377
C          2.90484        1.09152        2.86646
C          3.20212        1.50106        1.37413
C          4.45931        2.43160        1.52600
C          1.91764        2.20697        0.84882
C          4.03318        1.85601        3.67156
C          1.49843        1.58258        3.10485
C          4.13254        3.16322        2.85113
C          5.59999        1.53371        1.99192
C          0.96671        2.18960        2.02422
C          5.34367        1.18817        3.27507
H          2.99000        0.00156        3.04935
H          3.45188        0.62645        0.74762
H          4.65386        3.05884        0.63823
H          2.12231        3.24640        0.50757
H          1.48536        1.68478       -0.03195
H          3.83194        1.94646        4.75356
H          0.98505        1.45991        4.06854
H          3.19205        3.74599        2.82771
H          4.96234        3.80913        3.19030
H          6.40774        1.15348        1.35351
H         -0.04109        2.62899        1.98397
H          5.89944        0.46956        3.88996
