16
DIETHYLAMINE.gamout	Energy:    -213.6479611
C         52.04297       10.05402        0.01051
N         50.83115        9.24042       -0.01941
C         51.06843        7.80056        0.01207
C         51.70723       11.54439        0.00235
C         49.75249        7.02375        0.00158
H         52.69375        9.81918        0.89388
H         52.64264        9.79569       -0.88849
H         50.20533        9.51120        0.74934
H         51.66901        7.53685       -0.88502
H         51.68415        7.48554        0.89576
H         52.62850       12.15807       -0.00760
H         51.09939       11.80142       -0.88675
H         51.12737       11.82399        0.90579
H         49.93581        5.93220       -0.00697
H         49.14948        7.25624        0.90330
H         49.15178        7.29229       -0.88872
