18
DIETHANOLAMINE.gamout	Energy:    -363.9817581
C         -2.22573       -0.20574        0.03107
C         -1.08534        0.81986       -0.01869
C          1.36668        1.03299        0.03973
C          2.66269        0.22376        0.17208
O         -3.51633        0.38949       -0.10289
H         -2.14186       -0.80928        0.96214
H         -2.13413       -0.90617       -0.82449
H         -3.70136        0.92282        0.69028
O          3.83182        1.04068        0.15796
H          2.70749       -0.55077       -0.63095
H          2.66785       -0.30979        1.14159
H          3.89061        1.48984       -0.70406
N          0.20816        0.14793        0.04749
H         -1.16654        1.49777        0.85987
H         -1.21491        1.45994       -0.92854
H          1.42459        1.67382       -0.88226
H          1.28926        1.73044        0.89982
H          0.28784       -0.54239       -0.70876
