15
DIETHYL_ETHER.gamout	Energy:    -233.4993237
C          0.98612        2.77373        2.43039
C         -0.47953        2.48251        2.14955
O          1.78275        1.88600        1.65879
C          3.17816        2.07322        1.84481
C          3.92485        1.07282        0.97754
H          1.21341        2.64214        3.51707
H          1.23634        3.83263        2.17409
H         -1.12799        3.15968        2.73819
H         -0.72660        1.43769        2.41834
H         -0.70407        2.62807        1.07544
H          3.44177        1.93431        2.92265
H          3.46245        3.12068        1.57719
H          5.01820        1.19287        1.10442
H          3.67738        1.22340       -0.09077
H          3.65065        0.03750        1.25646
