17
DIETHYLENE_GLYCOL.gamout	Energy:    -383.8309005
O          1.74147        6.37189       -1.65894
C          1.98193        5.74055       -0.40113
C          3.01744        4.64666       -0.63632
O          3.26762        4.01369        0.60649
C          4.22960        2.97596        0.52291
O          5.37677        1.35282        1.82721
C          4.40357        2.39381        1.92088
H          1.08485        7.07779       -1.53974
H          2.37784        6.45911        0.35156
H          1.05531        5.28289        0.01334
H          2.63353        3.91742       -1.38882
H          3.95101        5.09624       -1.05105
H          3.89791        2.17707       -0.18183
H          5.20690        3.36689        0.15228
H          5.50957        0.96190        2.70655
H          3.42255        2.00867        2.27996
H          4.73139        3.20191        2.61291
