10
DIMETHYLAMINE.gamout	Energy:    -135.0718246
C          0.89879        1.07638        1.48966
N          2.09433        1.76507        1.02383
C          3.33507        1.17677        1.50962
H          0.82799        1.16700        2.59369
H         -0.00364        1.54954        1.05735
H          0.87277       -0.01802        1.24584
H          2.10078        1.81873        0.00095
H          4.20200        1.72352        1.09193
H          3.37993        1.27096        2.61467
H          3.45309        0.08915        1.26436
