9
DIMETHYL_SULFIDE.gamout	Energy:    -477.8756975
C          0.79326        0.90478        2.31611
S          2.21684        0.32795        1.32781
C          2.77672        1.92450        0.64027
H          0.35472        0.01223        2.80034
H          0.02333        1.37717        1.67386
H          1.11087        1.61732        3.10336
H          3.65657        1.71064        0.00528
H          3.07810        2.62460        1.44476
H          1.98971        2.39066        0.01445
