10
DIMETHYL_SULFOXIDE.gamout	Energy:    -553.0139091
C          0.83471        1.31636        0.60731
S          2.40113        2.08300        0.00011
C          3.53777        1.03669        1.01183
O          2.45999        3.49205        0.60549
H          0.77474        1.46099        1.70303
H          0.00747        1.84892        0.10475
H          0.81690        0.24194        0.34016
H          4.56348        1.38208        0.78953
H          3.30364        1.19537        2.08200
H          3.42281       -0.02694        0.72618
