9
ETHANOL.gamout	Energy:    -154.9370137
C          0.88783        0.85948        0.83806
C          1.66075        2.05977        1.38310
O          3.06402        1.81471        1.52173
H         -0.18262        1.11560        0.70204
H          0.93987       -0.00088        1.53719
H          1.29956        0.53767       -0.13820
H          1.58979        2.91454        0.68165
H          1.22147        2.39507        2.35139
H          3.19345        1.08013        2.14767
