11
ETHYL_FORMATE.gamout	Energy:    -268.1984954
C         -1.92126        0.16034       -5.86711
O         -2.73317        0.59673       -5.08460
O         -1.03006       -0.80154       -5.53841
H         -1.83037        0.50764       -6.93313
C         -0.11286       -1.24150       -6.57761
C          0.78241       -2.31610       -5.99012
H          0.48038       -0.37133       -6.92956
H         -0.70192       -1.63247       -7.43392
H          1.36697       -1.92211       -5.13720
H          1.49095       -2.67305       -6.76195
H          0.18577       -3.17912       -5.63893
