18
ETHYLBENZENE.gamout	Energy:    -310.6595959
C          5.33435        0.78770        2.02870
C          4.95164        1.90849        1.04160
C          3.56502        2.47615        1.27285
C          3.36984        3.61017        2.08605
C          2.43384        1.87646        0.68324
C          2.08483        4.13119        2.30560
C          1.14689        2.39115        0.89866
C          0.97046        3.52160        1.71052
H          6.35090        0.40194        1.81470
H          4.62542       -0.06139        1.96287
H          5.32055        1.15517        3.07388
H          5.01490        1.51846        0.00439
H          5.69658        2.72799        1.11057
H          4.24103        4.09232        2.55242
H          2.56639        0.99171        0.04368
H          1.94765        5.01909        2.94101
H          0.27476        1.91240        0.42944
H         -0.03451        3.92758        1.87760
