11
FURFURAL.gamout	Energy:    -343.1255674
C         -5.66121       -0.50438       -0.19206
O         -5.04699       -1.55692       -0.82771
C         -7.03585       -0.58588       -0.38476
C         -4.85197        0.46866        0.53447
C         -6.01992       -2.29554       -1.41531
C         -7.26751       -1.74925       -1.17914
O         -3.63103        0.44675        0.64295
H         -7.78149        0.11537        0.00487
H         -5.47205        1.28237        1.01133
H         -5.68478       -3.17930       -1.96708
H         -8.22653       -2.14008       -1.53478
