9
IMIDAZOLE.gamout	Energy:    -226.0753830
N          0.74423       -0.90326       -0.00000
N         -1.15359        0.26537       -0.00012
C          1.11486        0.43090       -0.00000
C         -0.62995       -0.95081       -0.00008
C         -0.08087        1.13397       -0.00008
H          1.37599       -1.70170        0.00007
H          2.16209        0.74476        0.00008
H         -1.18362       -1.89670       -0.00009
H         -0.22044        2.22021       -0.00009
