12
ISOBUTENE.gamout	Energy:    -157.1117804
C          0.95930        0.98521        1.38302
C          2.10041        1.88521        0.97692
C          3.47748        1.42514        1.38730
C          1.90151        3.03000        0.29065
H          1.07391       -0.02673        0.93858
H          0.94035        0.84124        2.48474
H         -0.01928        1.39336        1.06971
H          3.54660        1.32152        2.49156
H          3.70447        0.42176        0.96688
H          4.26354        2.12741        1.05428
H          2.74282        3.67654        0.00143
H          0.89199        3.35434       -0.00107
