15
ISOBUTANOL.gamout	Energy:    -233.5081760
C          2.67042        2.33895        0.98899
C          1.51891        2.15578        1.98289
C          0.84869        0.79046        1.76659
C          1.99423        2.33278        3.43157
O          3.22589        3.64946        1.14603
H          3.44488        1.55592        1.17588
H          2.29195        2.19486       -0.04946
H          0.77560        2.95209        1.75715
H          0.47900        0.67368        0.72841
H         -0.01469        0.66267        2.44812
H          1.55674       -0.03992        1.96988
H          2.45401        3.32637        3.58141
H          2.75038        1.56288        3.69344
H          1.14883        2.22811        4.13938
H          3.96205        3.76076        0.52154
