13
METHYL_ETHYL_KETONE.gamout	Energy:    -232.3077037
C          1.78682        1.41641        2.84149
C          0.83159        2.61183        2.64213
C          2.38484        0.95308        1.51491
C          3.69703        1.58623        1.08536
O          1.81323        0.12181        0.81893
H          2.59443        1.69748        3.54819
H          1.23059        0.56020        3.26947
H          0.00902        2.34411        1.95192
H          0.38727        2.91487        3.60958
H          1.36087        3.49090        2.22392
H          4.00808        1.19858        0.10019
H          3.59637        2.69081        1.04178
H          4.48323        1.37602        1.83992
