18
METHYLCYCLOPENTANE.gamout	Energy:    -235.7033025
C          0.67887        1.48925        1.54914
C          2.13722        1.12261        1.83680
C          3.18100        1.95069        1.06031
C          2.58957        1.32437        3.29717
C          4.52229        1.68824        1.78821
C          4.13553        1.26883        3.24278
H          0.42824        1.34026        0.47986
H          0.47910        2.55345        1.79483
H         -0.02193        0.87092        2.14462
H          2.29124        0.04910        1.57888
H          2.90805        3.02600        1.13179
H          3.21464        1.69648       -0.01654
H          2.15228        0.57948        3.98919
H          2.24944        2.32618        3.63829
H          5.17800        2.58007        1.77245
H          5.08670        0.87739        1.28585
H          4.49235        0.24212        3.46151
H          4.59816        1.92701        4.00266
