6
METHANOL.gamout	Energy:    -115.6467717
H          0.22021        0.82937        1.61566
C          0.66305        0.97504        0.60475
H         -0.04968        1.56164       -0.00475
H          0.79553       -0.02045        0.12429
O          1.87706        1.72097        0.64794
H          2.52982        1.23176        1.17723
