8
METHYL_FORMATE.gamout	Energy:    -228.9152470
C          0.03827        0.31268       -4.60647
O         -1.14917        0.26501       -4.85342
O          0.94944       -0.62598       -4.93666
H          0.55207        1.14468       -4.06839
C          0.43370       -1.77755       -5.64442
H         -0.31927       -2.30041       -5.02520
H         -0.03362       -1.46267       -6.59631
H          1.30609       -2.42477       -5.82989
