11
METHYL_ACETATE.gamout	Energy:    -268.2115256
O          2.35858        2.48062        0.98308
C          1.97510        1.17519        0.95479
C          0.46965        1.05009        1.01218
O          2.76570        0.24937        0.88875
C          3.78078        2.71027        0.92684
H          0.07123        1.59445        1.88961
H          0.01743        1.50543        0.10943
H          0.19329       -0.01556        1.06842
H          4.20225        2.29107       -0.00656
H          4.28147        2.23308        1.79062
H          3.90741        3.80528        0.95664
