15
MORPHOLINE.gamout	Energy:    -287.6058113
C         -5.18090        1.94774        1.66819
C         -5.44391        2.45619        0.24861
N         -3.96045        1.13940        1.65704
O         -5.54448        1.37357       -0.67913
C         -4.35957        0.57525       -0.67418
C         -4.07165        0.01854        0.72202
H         -5.04121        2.81049        2.35007
H         -6.08057        1.37507        2.01122
H         -4.61733        3.14106       -0.05779
H         -6.40315        3.00459        0.19233
H         -3.71450        0.82055        2.59773
H         -4.53109       -0.24142       -1.40111
H         -3.48963        1.18622       -1.01394
H         -4.88942       -0.69676        0.99582
H         -3.11629       -0.54279        0.70577
