16
N-BUTYLAMINE.gamout	Energy:    -213.6535787
C          2.04989        1.68018        1.50624
C          3.46683        1.26269        1.92367
C          4.56983        1.86253        1.04424
C          0.95058        1.09279        2.39981
N          5.89494        1.39987        1.47605
H          1.97852        2.78970        1.51436
H          1.87177        1.37614        0.45149
H          3.64307        1.57147        2.97934
H          3.56480        0.15650        1.90967
H          4.42349        1.52913       -0.00508
H          4.46184        2.97621        1.03724
H          1.07934        1.41034        3.45495
H         -0.05434        1.42154        2.07149
H          0.96293       -0.01609        2.38271
H          6.63574        1.75403        0.86240
H          6.11048        1.73266        2.42297
