20
N-BUTYL_ACETATE.gamout	Energy:    -386.0713929
O          4.05168       -0.15363       -1.73040
C          3.37384        0.13522       -2.97833
C          4.76291        0.86858       -1.18642
C          2.63623       -1.12010       -3.42170
C          5.42877        0.43553        0.09770
O          4.83595        1.97725       -1.68979
C          1.88224       -0.91323       -4.74536
C          1.12825       -2.16405       -5.21345
H          4.12850        0.45890       -3.72448
H          2.68134        0.98756       -2.82192
H          3.36205       -1.95337       -3.52885
H          1.92414       -1.42235       -2.62462
H          6.09899       -0.42528       -0.09100
H          6.00392        1.27607        0.51860
H          4.66598        0.09771        0.82595
H          1.16959       -0.06829       -4.63307
H          2.60331       -0.59872       -5.53077
H          0.37117       -2.48006       -4.46701
H          0.59910       -1.98242       -6.16905
H          1.82021       -3.01637       -5.36830
