17
N-BUTYL_FORMATE.gamout	Energy:    -346.7685906
C          2.38881        0.60219        0.09101
C          3.88384        0.31412        0.13400
O          4.07228       -1.12362        0.24942
C          2.08188        2.10458       -0.02589
C          5.34286       -1.58218        0.31173
C          0.57859        2.40919       -0.06806
O          5.61110       -2.75701        0.41231
H          1.94161        0.05594       -0.76552
H          1.91942        0.18941        1.00830
H          4.35885        0.81195        1.00646
H          4.38575        0.67427       -0.78978
H          2.54421        2.64302        0.82962
H          2.56543        2.51198       -0.94016
H          6.11554       -0.76658        0.26146
H          0.39203        3.49699       -0.15231
H          0.09219        1.91689       -0.93438
H          0.06865        2.05146        0.84927
