20
N-HEXANE.gamout	Energy:    -236.9091871
C          3.08761        1.09090        1.94137
C          2.98290        1.47970        3.42363
C          3.93272        0.69470        4.34227
C          2.11711        1.85428        1.02628
C          3.82443        1.08601        5.82056
C          2.22637        1.46193       -0.45167
H          2.90646       -0.00185        1.83413
H          4.13003        1.25874        1.58913
H          3.18437        2.56860        3.53351
H          1.93577        1.33117        3.77064
H          3.72990       -0.39239        4.22819
H          4.97833        0.84296        3.99395
H          1.07715        1.68473        1.38155
H          2.29727        2.94591        1.13586
H          4.50236        0.47824        6.45109
H          4.08821        2.15227        5.97580
H          2.79272        0.94138        6.20228
H          2.04298        0.37723       -0.59498
H          1.49108        2.01061       -1.07199
H          3.23608        1.68268       -0.85493
