26
N-OCTANE.gamout	Energy:    -315.4798363
C          3.85732        2.38289        1.67055
C          2.82936        3.04106        2.60390
C          1.36924        2.73976        2.23488
C          5.31732        2.66951        2.05233
C          0.34425        3.41036        3.16195
C          6.34460        2.02320        1.11080
C         -1.11089        3.09277        2.79914
C          7.79923        2.30349        1.50615
H          3.67579        2.72480        0.62709
H          3.69008        1.28281        1.66083
H          2.98876        4.14238        2.60589
H          3.01973        2.70729        3.64847
H          1.20754        1.63875        2.24703
H          1.17945        3.06091        1.18617
H          5.50121        2.31586        3.09157
H          5.48282        3.76981        2.07454
H          0.50312        4.51058        3.14255
H          0.54463        3.09581        4.20957
H          6.16363        2.38397        0.07473
H          6.17082        0.92540        1.08232
H         -1.82154        3.59485        3.48481
H         -1.35103        3.42346        1.76769
H         -1.30838        2.00248        2.85126
H          8.02172        1.91749        2.52219
H          8.51210        1.82771        0.80423
H          8.01130        3.39227        1.51242
