17
N-PENTANE.gamout	Energy:    -197.6242249
C          3.75034        2.40927        2.89789
C          2.60323        1.47005        2.49446
C          1.82773        1.93734        1.25156
C          4.53275        1.93997        4.13150
C          0.67075        1.01156        0.85681
H          3.33623        3.42381        3.08560
H          4.44609        2.52317        2.03813
H          1.89696        1.36514        3.34828
H          3.00938        0.44991        2.31279
H          2.53597        2.03500        0.40000
H          1.43690        2.96189        1.43524
H          5.34476        2.64709        4.39054
H          3.87170        1.85025        5.01791
H          4.99597        0.94632        3.96206
H         -0.07359        0.92511        1.67488
H          1.03125       -0.01221        0.62757
H          0.13833        1.38593       -0.03943
