13
N-PROPYLAMINE.gamout	Energy:    -174.3685752
C          3.37496        1.69787        1.08456
C          2.12553        0.99738        1.62949
C          0.84561        1.82395        1.45669
N          4.56455        0.85315        1.24411
H          3.23939        1.89156       -0.00072
H          3.46460        2.70190        1.57173
H          2.02640        0.01441        1.12439
H          2.28110        0.77436        2.70819
H          0.64298        2.03448        0.38671
H         -0.03476        1.29193        1.86557
H          0.92096        2.79892        1.98021
H          5.39391        1.29245        0.83265
H          4.77405        0.69774        2.23690
