12
N-PROPANOL.gamout	Energy:    -194.2220548
C         -0.19780        1.03830        0.66950
C          1.22244        0.51764        0.87153
C          2.17142        1.58141        1.43690
O         -0.99899       -0.02336        0.14053
H         -0.60909        1.39969        1.64210
H         -0.18290        1.91017       -0.02742
H          1.59823        0.14560       -0.10409
H          1.18136       -0.36110        1.54813
H          1.82946        1.94803        2.42629
H          2.24625        2.45831        0.76184
H          3.19136        1.17246        1.56745
H         -1.90683        0.29715        0.00720
