17
N-PROPYL_ACETATE.gamout	Energy:    -346.7860446
O          4.24108        4.63036        2.31152
C          4.71790        3.64406        1.50868
C          4.37911        5.98500        1.81740
C          4.50672        2.28299        2.13035
O          5.24498        3.85211        0.42842
C          3.79222        6.92119        2.86324
C          3.88636        8.39290        2.44107
H          3.85505        6.06394        0.84269
H          5.45332        6.19088        1.63075
H          3.90002        1.66514        1.44143
H          5.48704        1.78190        2.24121
H          4.00722        2.35300        3.11124
H          2.73367        6.64047        3.04134
H          4.32720        6.76207        3.82213
H          3.45631        9.05264        3.21756
H          4.93899        8.70196        2.28149
H          3.33457        8.58008        1.49781
