12
N-PROPANOL.gamout	Energy:    -194.2220509
C         -0.10561        0.95994        0.57880
C          1.33681        0.51425        0.84090
C          2.18700        1.61771        1.48261
O         -0.90161       -0.03111       -0.07473
H         -0.58101        1.28754        1.53405
H         -0.11400        1.83397       -0.10379
H          1.78430        0.18689       -0.12039
H          1.32460       -0.38105        1.50150
H          1.76706        1.93777        2.45786
H          2.23976        2.51340        0.83110
H          3.22300        1.27253        1.66102
H         -0.94786       -0.81953        0.49457
