14
NITROBENZENE.gamout	Energy:    -436.4782623
N          1.66476        0.00006       -0.00012
O          2.23837       -1.09530        0.00296
O          2.23873        1.09527       -0.00312
C          0.18354       -0.00000       -0.00048
C         -0.49563       -1.22707       -0.00122
C         -1.89708       -1.21863       -0.00102
C         -2.59622        0.00006       -0.00053
C         -1.89726        1.21869        0.00090
C         -0.49594        1.22692        0.00266
H          0.07974       -2.16036       -0.00170
H         -2.44851       -2.16953       -0.00167
H         -3.69486       -0.00001       -0.00096
H         -2.44871        2.16959        0.00143
H          0.07935        2.16017        0.00328
