10
NITROETHANE.gamout	Energy:    -284.1588387
N          0.54945       -0.01319       -0.05057
O          0.60895       -1.24273       -0.11059
O          1.48976        0.73451        0.22767
C         -0.78620        0.64024       -0.37196
C         -1.95406       -0.07758        0.28949
H         -0.67509        1.69114       -0.05610
H         -0.85386        0.60580       -1.47739
H         -2.01641       -1.12897       -0.04500
H         -1.86019       -0.05834        1.39180
H         -2.89471        0.43627        0.01297
