7
PF6-1.gamout	Energy:    -940.1962751
P          1.80815       -1.44283        0.16148
F          3.31946       -1.45838        0.87851
F          1.19434       -0.61117        1.47629
F          1.44028       -2.89270        0.90919
F          2.42360       -2.27537       -1.15238
F          2.17635        0.00753       -0.58608
F          0.29572       -1.42708       -0.55521
