9
PROPIONITRILE.gamout	Energy:    -171.9438441
N          2.52012       -0.72996       -0.00000
C         -0.11523       -0.61327        0.00000
C         -0.65342        0.83056       -0.00000
C          1.35013       -0.68612        0.00000
H         -0.48245       -1.16811        0.88870
H         -0.48247       -1.16806       -0.88870
H         -1.75953        0.81417       -0.00000
H         -0.31300        1.38184       -0.89629
H         -0.31300        1.38184        0.89629
