10
PYRROLE.gamout	Energy:    -210.0343264
C          2.89934        0.89847        0.12710
C          1.46873        0.87109        0.16422
C          3.29505        2.22301        0.28685
C          1.03191        2.17962        0.34514
N          2.15101        2.98499        0.41696
H          3.56932        0.04257       -0.00211
H          0.82614       -0.00985        0.06900
H          4.28753        2.68157        0.31787
H          0.02549        2.59974        0.42786
H          2.13479        3.99322        0.54679
