15
TERT-BUTANOL.gamout	Energy:    -233.5159805
C          0.77172        1.16064        2.66592
C          1.73019        1.76462        1.62444
C          2.80726        2.61836        2.30359
C          2.36703        0.66237        0.76089
O          1.00677        2.68984        0.77790
H         -0.01286        0.55169        2.17248
H          1.31163        0.50128        3.37442
H          0.27846        1.96644        3.24133
H          3.42562        2.00169        2.98296
H          3.46596        3.07708        1.54280
H          2.33428        3.42811        2.88974
H          3.02024        1.11122       -0.01084
H          2.97447       -0.02833        1.37905
H          1.58643        0.05975        0.25396
H          0.30456        2.19965        0.31351
