15
TOLUENE.gamout	Energy:    -271.3747697
C          5.01273        0.86940        2.13302
C          3.60916        1.42632        2.13701
C          2.87322        1.52842        0.93837
C          3.00596        1.87108        3.32927
C          1.57718        2.06179        0.93041
C          1.70848        2.40567        3.32811
C          0.99100        2.50329        2.12702
H          5.73697        1.62055        1.75362
H          5.33569        0.57901        3.15004
H          5.09251       -0.01982        1.47752
H          3.32622        1.18333       -0.00292
H          3.56393        1.79552        4.27403
H          1.01897        2.13395       -0.01423
H          1.25401        2.74740        4.26969
H         -0.02403        2.92061        2.12224
