13
TRIMETHYLAMINE.gamout	Energy:    -174.3509446
N         -0.00024       -0.00064        0.31444
C         -0.53971       -1.28497       -0.10464
C         -0.84134        1.10980       -0.10491
C          1.38151        0.17545       -0.10520
H         -1.56528       -1.41048        0.29387
H          0.08840       -2.10634        0.29189
H         -0.58759       -1.39499       -1.22205
H         -1.86796        0.97641        0.28816
H         -0.90954        1.20696       -1.22259
H         -0.43789        2.06012        0.29562
H          1.77595        1.13095        0.29119
H          1.49904        0.19027       -1.22273
H          2.00425       -0.64864        0.29311
