8
UREA.gamout	Energy:    -225.1358768
N          1.21640        0.60096        0.00456
C          2.32594        1.42409       -0.04417
N          3.54254        0.77065        0.01636
O          2.23677        2.64964       -0.13458
H          0.30530        1.04782       -0.03766
H          1.25833       -0.41164        0.07919
H          3.64794       -0.23726        0.09156
H          4.37898        1.34579       -0.01700
