9
1,1,2-TRIFLUOROETHANOL.gamout	Energy:    -452.4242729
F         -0.48535       -1.09249        0.77548
C         -0.42851       -0.00000       -0.05894
C          0.87613       -0.00000       -0.85550
F          1.95529       -0.00000       -0.00287
O         -1.47291        0.00000       -0.93704
F         -0.48535        1.09250        0.77548
H          0.89595       -0.90720       -1.49752
H          0.89595        0.90720       -1.49752
H         -2.30288       -0.00000       -0.41659
