24
1,1,2-TRIMETHYLCYCLOPENTANE.gamout	Energy:    -314.2501265
C          0.68447        2.92431        1.29247
C          1.89137        2.09692        1.76784
C          1.42601        0.63943        1.99586
C          2.57948        2.63698        3.07274
C          3.06473        2.12720        0.74604
C          2.70552        4.16902        3.14037
C          3.97179        1.94767        3.05058
C          4.34770        1.77694        1.54693
H          0.95993        3.97087        1.04885
H         -0.11890        2.95287        2.06025
H          0.24655        2.47754        0.37431
H          2.25193       -0.02212        2.32927
H          1.01510        0.20702        1.05864
H          0.62732        0.59090        2.76701
H          1.99816        2.30553        3.96281
H          2.88047        1.44088       -0.10804
H          3.14505        3.14683        0.31073
H          3.26066        4.58356        2.27121
H          3.26145        4.46986        4.05332
H          1.71749        4.67198        3.17846
H          4.72758        2.53034        3.61803
H          3.91282        0.95800        3.54928
H          4.68605        0.74029        1.34059
H          5.19230        2.43547        1.25648
