11
1,1,1,3,3-PENTAFLUOROPROPANE.gamout	Energy:    -614.8790702
C         -2.44313        1.68688       -0.02643
C         -1.19746        2.54291        0.14420
C          0.11548        1.80992       -0.10989
H         -1.18665        2.95358        1.17387
H         -1.26631        3.39211       -0.56427
F         -3.56078        2.43472        0.13723
F         -2.49552        1.14015       -1.27133
F         -2.49343        0.67359        0.86468
F          1.14250        2.71364       -0.03240
F          0.32209        0.84986        0.84072
H          0.15048        1.32143       -1.11056
