8
1,1,2,2-TETRAFLUOROETHANE.gamout	Energy:    -476.4041866
C         -1.16933        2.10028       -0.09561
C          0.28721        1.60469       -0.13261
F         -1.43755        2.67646        1.10441
F         -1.99700        1.02757       -0.26971
H         -1.35602        2.83994       -0.90927
F          1.11726        2.68886       -0.15093
F          0.55524        0.85861        0.97006
H          0.46864        0.98855       -1.04463
