27
1,1,2,2-TETRAMETHYLCYCLOPENTANE.gamout	Energy:    -353.5310283
C         -0.80804       -1.06305       -0.24381
C          0.75775       -1.11410        0.02693
C          1.19563        0.34183       -0.31265
C          0.01870        1.26638        0.10733
C         -1.19970        0.32829        0.33809
C          1.06459       -1.40311        1.51651
C          1.51287       -2.15154       -0.82468
C         -1.11807       -1.08521       -1.75950
C         -1.60048       -2.20306        0.42238
H          1.38871        0.42779       -1.40330
H          2.14945        0.60754        0.19114
H         -0.19001        2.02325       -0.67697
H          0.25912        1.83647        1.02849
H         -1.41744        0.23319        1.42349
H         -2.13087        0.71041       -0.13123
H          0.54217       -0.70665        2.20508
H          2.15395       -1.29682        1.70595
H          0.78052       -2.43628        1.80465
H          1.42946       -1.94737       -1.91146
H          1.13839       -3.18258       -0.64274
H          2.59499       -2.14950       -0.57266
H         -0.57194       -0.29666       -2.31783
H         -2.20284       -0.91618       -1.92947
H         -0.86412       -2.06189       -2.22157
H         -1.50857       -2.19140        1.52750
H         -1.26563       -3.20050        0.06357
H         -2.68190       -2.11580        0.18241
