8
1,1,2-TRICHLOROTRIFLUOROETHANE.gamout	Energy:   -1755.7300493
C          0.46487        0.94413        0.00165
Cl        -0.42630        2.49322        0.03032
C          2.01938        1.20700       -0.00083
Cl         0.04748       -0.04311        1.44102
F          0.14527        0.25637       -1.11180
F          2.66158        0.02433        0.03839
Cl         2.51085        2.08613       -1.48370
F          2.36201        1.91802        1.08426
