8
1,1,2,2-TETRACHLOROETHANE.gamout	Energy:   -1917.7396384
Cl        -0.55526        1.57140        0.91570
C         -0.57455        0.51170       -0.52166
C          0.57455       -0.51170       -0.52166
Cl         2.14483        0.35565       -0.69934
Cl         0.55526       -1.57141        0.91570
Cl        -2.14483       -0.35565       -0.69934
H         -0.46602        1.16164       -1.41055
H          0.46602       -1.16165       -1.41055
