8
1,1,2-TRIBROMOETHANE.gamout	Energy:   -7800.3086903
C          0.49649        0.84410        0.02867
C          2.01405        0.86550        0.04509
Br         2.75639        1.72748        1.63709
Br         2.65574       -0.99944       -0.12052
Br        -0.24788        2.66207       -0.13326
H          0.14342        0.29005       -0.86194
H          0.07587        0.39618        0.94828
H          2.43381        1.40402       -0.82268
