11
1,1,1,2,3,3,3-HEPTAFLUOROPROPANE.gamout	Energy:    -813.2002218
F         -1.36192       -1.43034        0.42258
C         -1.30270       -0.13873        0.03529
C          0.00000        0.51631        0.54793
C          1.30270       -0.13873        0.03529
F          1.39625       -0.08478       -1.30478
F          2.36211        0.51002        0.56102
F          1.36192       -1.43034        0.42259
F         -0.00000        1.83563        0.16327
F         -1.39625       -0.08477       -1.30478
F         -2.36211        0.51001        0.56103
H          0.00001        0.44517        1.65792
