8
1,1,1,2-TETRACHLOROETHANE.gamout	Energy:   -1917.7387746
Cl        -0.24662       -1.46989       -0.97066
C         -0.38388       -0.00000        0.05117
C          0.67676        0.00000        1.16140
Cl         2.35689        0.00000        0.54050
Cl        -0.24661        1.46989       -0.97066
Cl        -1.99324       -0.00000        0.88914
H          0.53342        0.90573        1.78167
H          0.53343       -0.90572        1.78168
