11
1,1,1,3,3,3-HEXAFLUOROPROPANE.gamout	Energy:    -714.0574837
C         -4.39155        2.68590        0.04725
C         -3.75813        4.05279       -0.19544
C         -2.25325        4.13892        0.04493
H         -4.25619        4.78546        0.46853
H         -3.95522        4.34218       -1.24578
F         -5.72260        2.75443       -0.20412
F         -4.23753        2.27356        1.32521
F         -3.86952        1.73593       -0.75935
F         -1.82694        5.40163       -0.20638
F         -1.92798        3.84277        1.32235
F         -1.56295        3.30448       -0.76314
