24
1,1,3-TRIMETHYLCYCLOPENTANE.gamout	Energy:    -314.2542636
C          0.77046        2.85599        1.20611
C          1.70804        1.92965        2.01212
C          0.87292        1.08299        2.98943
C          2.79013        2.77294        2.75228
C          2.55630        1.03063        1.03039
C          3.95950        2.91812        1.75779
C          4.02750        1.50141        1.14420
C          5.27211        3.41987        2.36468
H          0.16260        3.50258        1.87517
H          0.06808        2.26424        0.58084
H          1.34340        3.51974        0.52471
H          0.12372        0.46592        2.44808
H          0.31824        1.72522        3.70744
H          1.51393        0.39434        3.58053
H          2.39620        3.74724        3.11453
H          3.15321        2.21732        3.64824
H          2.45662       -0.04519        1.28595
H          2.17746        1.13580       -0.00867
H          3.64780        3.62789        0.95565
H          4.58938        0.84150        1.84349
H          4.57335        1.47596        0.17730
H          5.62471        2.73446        3.16643
H          6.07684        3.48383        1.60186
H          5.15775        4.42928        2.81354
