11
1,1,1,2,2-PENTAFLUOROPROPANE.gamout	Energy:    -614.8790804
C         -1.35500       -0.62950        0.30500
C          0.10029       -0.55556       -0.10501
C          0.70828        0.87522       -0.03766
F          0.86805       -1.35194        0.70451
F          0.25929       -1.00009       -1.39173
F          0.02798        1.70987       -0.85481
F          1.99919        0.87494       -0.40577
F          0.61969        1.35476        1.22323
H         -1.68714       -1.68265        0.22908
H         -1.97131       -0.00000       -0.36405
H         -1.47195       -0.28205        1.34861
