8
1,1,2-TRICHLOROETHANE.gamout	Energy:   -1458.2470735
Cl        -1.05490       -1.48923       -0.20624
C         -0.60016       -0.00000        0.69757
C          0.87572       -0.00000        1.07674
Cl         1.98870        0.00000       -0.32968
Cl        -1.05489        1.48922       -0.20624
H         -1.21062       -0.00000        1.62195
H          1.09007        0.90442        1.68082
H          1.09008       -0.90441        1.68082
