8
1,1,1-TRICHLOROETHANE.gamout	Energy:   -1458.2488025
C          2.58556        2.57725        2.44935
C          1.67333        1.61976        1.69823
Cl         2.14432        1.55539       -0.04737
Cl        -0.04440        2.17427        1.82130
Cl         1.80412       -0.04165        2.40212
H          2.49902        3.59166        2.01324
H          2.29068        2.60999        3.51665
H          3.63445        2.23049        2.36853
