10
1,1,1-TRICHLOROACETONE.gamout	Energy:   -1571.4846331
Cl         1.10219       -0.95496       -1.46078
Cl         1.03251       -0.98287        1.50057
Cl         1.47632        1.53289        0.05237
O         -1.38592        1.32233       -0.01598
C          0.62564       -0.02432        0.01841
C         -0.94608        0.19471       -0.01646
C         -1.80221       -1.05328       -0.05027
H         -2.86410       -0.74769       -0.07326
H         -1.56297       -1.66374       -0.94397
H         -1.60821       -1.68512        0.83965
