11
1,1,2,2,3-PENTAFLUOROPROPANE.gamout	Energy:    -614.8434733
C          1.82701        0.37545       -1.90929
C          0.56961       -0.47139       -1.70292
C          0.11262       -1.20116       -2.99065
F         -0.44694        0.31972       -1.25305
F          0.80202       -1.43589       -0.75524
F         -1.14663       -1.67191       -2.82745
F          0.12282       -0.31400       -4.03523
H          0.79477       -2.04938       -3.23120
F          2.20273        0.95099       -0.71791
H          1.60383        1.15980       -2.66375
H          2.64899       -0.27277       -2.28865
