27
1,1,4-TRIMETHYLCYCLOHEXANE.gamout	Energy:    -353.5350544
C          2.30862        0.71742        2.41245
C          2.01922        0.90413        3.91714
C          1.26538        2.21483        4.20905
C          2.77124        2.02688        1.67372
C          3.21820        3.07140        2.73026
C          1.61694        2.59733        0.81694
C          3.95975        1.71153        0.74221
C          2.12837        3.43313        3.76424
C          0.82958        2.32945        5.67650
H          3.08022       -0.07358        2.28995
H          1.39626        0.32649        1.90976
H          1.43798        0.03467        4.29543
H          2.97139        0.90514        4.49681
H          0.33928        2.19894        3.58709
H          4.10805        2.66524        3.26113
H          3.57163        3.99211        2.21516
H          0.71263        2.81754        1.42124
H          1.91815        3.53917        0.30856
H          1.31766        1.87415        0.02800
H          3.69097        0.93795       -0.00972
H          4.28986        2.61635        0.18742
H          4.83187        1.33134        1.31639
H          2.62468        3.87820        4.65567
H          1.46503        4.23044        3.36465
H          1.70952        2.29406        6.35592
H          0.29890        3.28626        5.86989
H          0.14736        1.50267        5.96850
