27
1,1,3,3-TETRAMETHYLCYCLOPENTANE.gamout	Energy:    -353.5355291
C          1.83156        2.22438        2.08862
C          0.80595        3.29023        1.65994
C          1.14206        1.20538        3.02449
C          3.08163        2.85245        2.78625
C          2.46240        1.49724        0.86746
C          4.35790        2.03948        2.34811
C          3.79406        0.93705        1.39138
C          5.33335        2.95979        1.57971
C          5.09186        1.41826        3.55219
H          0.40202        3.84215        2.53618
H          1.26301        4.03497        0.97345
H         -0.05638        2.82868        1.13230
H          0.73210        1.70965        3.92566
H          1.84535        0.42115        3.37368
H          0.29870        0.69778        2.50908
H          3.18818        3.91551        2.47959
H          2.95988        2.86084        3.89077
H          1.79322        0.71755        0.44268
H          2.65140        2.23589        0.05593
H          3.61562       -0.00420        1.95609
H          4.50780        0.68576        0.57790
H          5.66197        3.81103        2.21401
H          6.24258        2.40692        1.25892
H          4.85902        3.38534        0.66955
H          4.41466        0.77445        4.15347
H          5.94631        0.78857        3.22095
H          5.49904        2.20035        4.22938
