15
1,1-DIMETHYLCYCLOPROPANE.gamout	Energy:    -196.3767026
C          3.18767        2.27284        0.75523
C          2.06152        2.02170        1.74892
C          1.56742        3.27009        2.46759
C          1.04599        0.94015        1.41892
C          2.06876        0.71143        2.51837
H          3.50893        1.33442        0.25761
H          4.07808        2.70712        1.26075
H          2.87380        2.98428       -0.03981
H          0.74856        3.03776        3.18014
H          1.18060        4.02265        1.74604
H          2.38723        3.75062        3.04552
H          1.16437        0.38201        0.47500
H         -0.00454        1.10214        1.71306
H          2.88672       -0.00343        2.32689
H          1.71735        0.71697        3.56386
