27
1,1-DIETHYLCYCLOPENTANE.gamout	Energy:    -353.5290611
C          2.80438       -1.04950        1.47390
C          3.37762        0.36613        1.80403
C          4.03454       -1.92874        1.13328
C          4.91203        0.24592        1.62967
C          5.24764       -1.25777        1.83986
C          5.21123       -1.63398        3.35360
C          6.62284       -1.67030        1.24601
C          6.27741       -1.00075        4.25857
C          6.81095       -1.54216       -0.27261
H          2.24688       -1.45888        2.34257
H          2.08060       -1.02075        0.63305
H          2.95411        1.15373        1.14683
H          3.11742        0.66004        2.84247
H          4.20073       -1.92268        0.03532
H          3.90761       -2.99165        1.43241
H          5.48065        0.91351        2.31113
H          5.19827        0.53570        0.59589
H          4.20774       -1.38253        3.76322
H          5.28839       -2.74320        3.42536
H          7.41068       -1.06648        1.74835
H          6.82524       -2.72571        1.54185
H          6.12097       -1.30301        5.31550
H          7.30711       -1.30929        3.98356
H          6.24495        0.10922        4.23190
H          7.85168       -1.80179       -0.55801
H          6.14209       -2.21983       -0.84301
H          6.62638       -0.50916       -0.63685
