6
1,1-DICHLOROETHYLENE.gamout	Energy:    -997.5235918
C          0.96277        0.53303        0.51138
C          1.19990        1.74373        1.04534
Cl         2.75274        2.53168        0.95156
Cl        -0.02041        2.65871        1.89090
H          1.76283       -0.00785       -0.01322
H         -0.03347        0.07707        0.59701
