8
1,1-DIFLUORO-2,2-DICHLOROETHANE.gamout	Energy:   -1197.0730728
C         17.97884       20.01959       -0.01489
C         19.29694       20.81491       -0.01819
Cl        16.56088       21.10909       -0.00345
Cl        17.96671       18.89052       -1.41371
F         19.36508       21.66185       -1.07432
F         19.37271       21.54509        1.13241
H         17.92857       19.40456        0.90349
H         20.16125       20.11035       -0.05715
