8
1,1-DIFLUORO-1,2-DICHLOROETHANE.gamout	Energy:   -1197.0845113
C          9.99251       18.04886       -0.03329
C         11.51987       18.03823       -0.06733
F          9.48438       19.15617       -0.60926
Cl         9.40277       16.59333       -0.95593
F          9.51939       17.98066        1.22656
Cl        12.21486       19.43506        0.82569
H         11.88132       17.10354        0.39999
H         11.85657       18.08662       -1.11946
