8
1,1-DICHLOROTETRAFLUOROETHANE.gamout	Energy:   -1395.4078031
C         21.98116       19.99665        0.00385
C         23.55102       19.99484        0.00789
Cl        24.15321       18.31150       -0.02089
Cl        24.15170       20.86209        1.45294
F         23.96386       20.63906       -1.10480
F         21.53308       21.26359       -0.00724
F         21.53090       19.37504       -1.09924
F         21.49726       19.37201        1.08641
