8
1,1-DICHLORO-1-FLUOROETHANE.gamout	Energy:   -1097.9202655
C          1.59120        0.27418       -0.79093
C          0.69383       -0.89905       -0.45097
H          1.01030       -1.32586        0.52152
H         -0.35235       -0.54173       -0.37545
H          0.75987       -1.67821       -1.23250
F          1.50631        1.22826        0.17183
Cl         3.32421       -0.24791       -0.90066
Cl         1.09617        1.03011       -2.36331
