8
1,1-DICHLORO-2,2,2-TRIFLUOROETHANE.gamout	Energy:   -1296.2503603
C         41.01415       20.01407        0.02343
C         39.46597       20.01005        0.01585
F         38.94905       20.62996        1.08685
F         39.01754       20.62577       -1.09871
F         39.01924       18.73635       -0.00424
Cl        41.63105       21.69120       -0.04026
Cl        41.63004       19.11741        1.44355
H         41.36630       19.48924       -0.88442
