8
1,1-DICHLOROETHANE.gamout	Energy:    -998.7572130
C          2.14763        0.89113        0.84294
C          1.62119        2.05735        1.65684
Cl        -0.06577        1.73270        2.23001
Cl         2.71656        2.40986        3.05573
H          2.18674       -0.02566        1.46314
H          3.16822        1.12077        0.47526
H          1.48327        0.70826       -0.02613
H          1.56436        2.99782        1.07869
