32
1,10-DIBROMODECANE.gamout	Energy:   -5541.0617983
C         51.94722       10.09429       -0.00002
C         53.26733        9.30493        0.00021
C         52.16220       11.61962        0.00019
C         53.08270        7.78032       -0.00006
C         54.40579        6.99711        0.00015
C         54.22114        5.47250       -0.00011
C         55.54124        4.68311        0.00009
C         55.32623        3.15780       -0.00014
C         56.63933        2.38535        0.00009
C         50.84906       12.39204       -0.00010
Br        51.14078       14.34949        0.00016
Br        56.34759        0.42788       -0.00011
H         51.34274        9.80047       -0.88894
H         51.34227        9.80026        0.88850
H         53.87026        9.60461        0.88830
H         53.87070        9.60485       -0.88750
H         52.76063       11.91305        0.89071
H         52.76111       11.91319       -0.88996
H         52.47952        7.48012       -0.88814
H         52.47909        7.47986        0.88764
H         55.00898        7.29730        0.88822
H         55.00940        7.29757       -0.88756
H         53.61819        5.17282       -0.88817
H         53.61781        5.17259        0.88763
H         56.14575        4.97690        0.88900
H         56.14618        4.97713       -0.88845
H         54.72776        2.86438       -0.89064
H         54.72736        2.86422        0.89005
H         57.25175        2.58961        0.90010
H         57.25214        2.58975       -0.89962
H         50.23673       12.18775       -0.90016
H         50.23621       12.18758        0.89957
