12
1,2,4-TRICHLOROBENZENE.gamout	Energy:   -1610.5713885
C          6.32928        1.87019       -0.67302
C          6.88020        0.61895       -0.33926
C          4.94018        2.05325       -0.72402
C          4.09416        0.96722       -0.43643
C          4.62199       -0.29046       -0.10095
Cl         2.35855        1.17937       -0.49512
C          6.01708       -0.46547       -0.05190
Cl         6.65838       -2.02950        0.36635
Cl         8.60981        0.42540       -0.28533
H          7.00873        2.70634       -0.89434
H          4.51382        3.03216       -0.98531
H          3.95848       -1.13663        0.12334
