26
1,2,3-TRIMETHYLINDENE.gamout	Energy:    -465.3689453
C         -0.61398        0.28322       -1.52700
C         -0.52417        0.67560       -0.03697
C          2.08478        0.40258        0.33327
C          0.86814        1.08770        0.40571
C          3.25331        1.03024        0.81801
C         -1.37350        1.88811        0.34235
C         -2.85303        1.91006        0.10577
C          3.19328        2.32591        1.36544
C          0.80480        2.39629        0.95628
C         -0.59265        2.86666        0.90653
C          1.96988        3.02046        1.44062
C         -1.01432        4.21199        1.42054
H         -1.64937       -0.00058       -1.80916
H         -0.29764        1.12743       -2.17421
H          0.04065       -0.58378       -1.75242
H         -0.86056       -0.20066        0.57098
H          2.14096       -0.61337       -0.09213
H          4.21856        0.50146        0.76724
H         -3.32481        2.84259        0.47334
H         -3.09813        1.81664       -0.97624
H         -3.35824        1.05589        0.61051
H          4.11429        2.80168        1.73927
H          1.93130        4.03457        1.87033
H         -2.10199        4.38653        1.30422
H         -0.76617        4.32874        2.49854
H         -0.48341        5.03091        0.88664
