36
1,2,3,5-TETRAETHYLBENZENE.gamout	Energy:    -546.3451259
C          6.32984        1.77926       -0.85204
C          6.71021        0.49122       -0.37944
C          4.98787        2.01928       -1.21402
C          7.31181        2.94109       -0.92861
C          5.72181       -0.53065       -0.29267
C          8.16472        0.19048       -0.03706
C          4.39059       -0.24454       -0.65992
C          6.04067       -1.92694        0.22631
C          3.99780        1.02287       -1.12939
C          2.55363        1.31588       -1.49362
C          5.91289       -2.05683        1.75726
C          8.98081       -0.33276       -1.23743
C          1.71281        1.81269       -0.30092
C          7.39773        3.74679        0.38266
H          4.70999        3.02125       -1.58653
H          8.32388        2.58355       -1.21186
H          6.99577        3.61991       -1.75001
H          8.65778        1.09723        0.36973
H          8.21292       -0.55318        0.78521
H          3.63732       -1.04974       -0.59373
H          5.34919       -2.65106       -0.25609
H          7.05900       -2.23643       -0.08813
H          2.52638        2.07749       -2.30356
H          2.08594        0.40049       -1.91751
H          6.14041       -3.09034        2.09337
H          6.60616       -1.36807        2.28412
H          4.88540       -1.80512        2.09237
H         10.03269       -0.54181       -0.94949
H          8.54457       -1.26989       -1.64097
H          8.99370        0.40265       -2.06871
H          0.66456        2.01710       -0.60477
H          1.69143        1.06063        0.51525
H          2.13487        2.74821        0.12156
H          8.10638        4.59696        0.29032
H          6.40480        4.15773        0.65998
H          7.73580        3.11185        1.22828
