21
1,2,3-TRIMETHYLBENZENE.gamout	Energy:    -349.9310180
C          3.41064        5.41197        0.97497
C          3.39962        3.89706        0.95168
C          2.13306        3.23930        1.00738
C          4.58822        3.11964        0.88304
C          0.85458        4.04476        1.08443
C          2.07274        1.83358        0.99296
C          5.98369        3.71458        0.83397
C          4.48625        1.70858        0.86966
C          3.24552        1.06477        0.92404
H          2.97193        5.80268        1.91945
H          4.42416        5.84183        0.88389
H          2.79499        5.83530        0.15223
H          0.72176        4.69934        0.19532
H         -0.03196        3.38349        1.15005
H          0.83970        4.71818        1.96905
H          1.08833        1.33889        1.03672
H          6.54365        3.48473        1.76640
H          6.56868        3.27946       -0.00361
H          5.99474        4.81260        0.70813
H          5.41057        1.10911        0.81480
H          3.18946       -0.03550        0.91216
