24
1,2,4,5-TETRAMETHYLBENZENE.gamout	Energy:    -389.2215691
C          2.06932        3.02463        1.50686
C          0.60514        2.66106        1.60710
C          3.07866        2.03777        1.66414
C          2.46323        4.35363        1.25489
C          2.71893        0.59436        1.93569
C          4.42691        2.43345        1.56110
C          3.81148        4.74930        1.15187
C          4.82082        3.76244        1.30913
C          4.17121        6.19273        0.88041
C          6.28500        4.12602        1.20899
H          0.31541        1.89825        0.85135
H          0.35409        2.22782        2.60021
H         -0.04290        3.54710        1.45470
H          1.67885        5.12088        1.13260
H          3.62490       -0.03568        2.03773
H          2.12615        0.48335        2.87037
H          2.09908        0.16237        1.11954
H          5.21129        1.66620        1.68340
H          4.76460        6.30376       -0.05387
H          3.26523        6.82264        0.77772
H          4.79042        6.62487        1.69698
H          6.57490        4.88808        1.96545
H          6.93299        3.23979        1.36051
H          6.53594        4.56016        0.21626
