12
1,2,3-TRICHLOROBENZENE.gamout	Energy:   -1610.5684287
C          6.34361        1.87382       -0.67415
C          6.88716        0.62434       -0.34062
C          4.95344        2.05489       -0.72469
C          4.09809        0.97630       -0.43875
C          4.62481       -0.29514       -0.09937
Cl         2.37350        1.21937       -0.50583
C          6.03257       -0.45500       -0.05469
Cl         3.57003       -1.62512        0.25372
Cl         6.72415       -2.00069        0.35809
H          7.01279        2.71868       -0.89793
H          7.97432        0.46738       -0.29710
H          4.51330        3.02810       -0.98470
