36
1,2,4,5-TETRAETHYLBENZENE.gamout	Energy:    -546.3451927
C          5.85205        1.95633       -0.94782
C          6.31187        0.64701       -0.69603
C          4.46745        2.22534       -0.76751
C          6.85595        3.01014       -1.38897
C          5.48230       -0.40559       -0.26172
C          4.10002       -0.13480       -0.07281
C          6.09981       -1.76552        0.02456
C          3.63716        1.16893       -0.33703
C          3.10356       -1.20591        0.34135
C          3.84606        3.59368       -1.00283
C          7.79048        3.49772       -0.26389
C          3.99307        4.56642        0.18318
C          2.49372       -1.97116       -0.85073
C          6.55945       -1.93248        1.48679
H          7.38381        0.43041       -0.85582
H          7.47928        2.58719       -2.20840
H          6.32851        3.88155       -1.82890
H          5.38877       -2.57877       -0.23344
H          6.97640       -1.90719       -0.64459
H          2.56025        1.37663       -0.20242
H          3.57856       -1.92755        1.03912
H          2.28293       -0.72473        0.91633
H          4.27719        4.05818       -1.91644
H          2.76479        3.45339       -1.21822
H          8.50642        4.25778       -0.64120
H          7.21987        3.95409        0.57202
H          8.38146        2.66096        0.16408
H          3.48517        5.53231       -0.02321
H          3.54845        4.13875        1.10605
H          5.05801        4.78775        0.40228
H          1.76309       -2.73360       -0.50741
H          1.96570       -1.27792       -1.53835
H          3.27327       -2.49131       -1.44574
H          7.01560       -2.93102        1.65485
H          7.31278       -1.16351        1.75733
H          5.71285       -1.82416        2.19718
