17
1,2,3-TRICHLORO-2-METHYLBUTANE.gamout	Energy:   -1576.1096552
C          0.92502        0.02542       -0.11508
C          0.48122       -0.87151        1.05509
C          0.91668       -2.34881        0.88146
C          0.42942       -3.31490        1.95502
C          0.93867       -0.30820        2.40762
Cl         0.41503       -2.99287       -0.75635
Cl        -1.36308       -0.77111        0.99872
Cl         2.73658        0.11774       -0.24986
H          0.54652       -0.37444       -1.07305
H          0.56038        1.05792        0.04067
H          2.02614       -2.33246        0.83817
H         -0.67778       -3.32703        1.99365
H          0.82031       -3.02639        2.95212
H          0.78951       -4.33801        1.73306
H          0.68184        0.76725        2.47448
H          2.03917       -0.40827        2.50619
H          0.44886       -0.83066        3.25059
