21
1,2,4-TRIMETHYLBENZENE.gamout	Energy:    -349.9334170
C         -1.33023        1.74306       -0.12072
C         -2.22970        0.72673        0.22578
C          0.06304        1.61090        0.07791
C          0.54716        0.40329        0.64782
C         -0.37609       -0.60971        0.99035
C         -1.76355       -0.47931        0.79295
H         -3.30946        0.87119        0.05355
H         -1.71621        2.67711       -0.56285
H          0.01026       -1.54496        1.43301
C          0.98769        2.74394       -0.31757
H          0.41229        3.59121       -0.74149
H          1.56488        3.13771        0.54700
H          1.72941        2.43200       -1.08434
C          2.02146        0.15848        0.90320
H          2.65782        1.01102        0.60075
H          2.38068       -0.73612        0.35024
H          2.21593       -0.03315        1.98060
C         -2.72359       -1.58574        1.17259
H         -2.19049       -2.45778        1.60187
H         -3.30079       -1.94393        0.29301
H         -3.46512       -1.24042        1.92473
