12
1,2,3,4-TETRAFLUOROBENZENE.gamout	Energy:    -628.7011254
F          7.14534        2.88679       -0.94317
C          6.32911        1.86317       -0.67170
C          6.86876        0.60761       -0.33632
C          4.92982        2.02918       -0.71805
F          8.19506        0.44439       -0.29053
C          6.00310       -0.46798       -0.05114
F          4.43974        3.23674       -1.04041
C          4.07524        0.95793       -0.43394
F          6.54080       -1.65627        0.26636
C          4.61472       -0.29721       -0.09874
H          2.98840        1.11965       -0.47874
H          3.96631       -1.15575        0.12910
