30
1,2,4-TRIETHYLBENZENE.gamout	Energy:    -467.7791332
C          2.72246        0.79801        1.83108
C          2.14600        1.69405        2.94469
C          2.82947        3.04953        3.05695
C          2.23181        4.26219        2.61202
C          4.12687        3.09555        3.61438
C          0.84487        4.32543        1.99187
C          2.97576        5.45792        2.73996
C          4.86972        4.28564        3.73664
C          0.81380        4.00435        0.48514
C          4.26737        5.47793        3.28315
C          6.24545        4.28941        4.37767
C          6.21381        4.56322        5.89392
H          2.61999        1.27240        0.83297
H          2.20297       -0.18286        1.79645
H          3.80333        0.60212        1.99045
H          2.24811        1.16276        3.91731
H          1.05580        1.82334        2.78582
H          4.57937        2.15180        3.96872
H          0.43652        5.34711        2.14851
H          0.15231        3.64115        2.52865
H          2.51989        6.40360        2.40025
H          1.16121        2.97072        0.27913
H          1.47524        4.69228       -0.08183
H         -0.21257        4.10174        0.07268
H          4.81482        6.43257        3.36077
H          6.87953        5.05618        3.88074
H          6.73768        3.31053        4.19009
H          5.75667        5.55041        6.11430
H          7.23723        4.55713        6.32461
H          5.61518        3.79569        6.42769
