10
1,2-PROPYLENE_OXIDE.gamout	Energy:    -192.9641055
C          0.71049       -1.29503        0.28537
C         -0.74169       -1.02419        0.20156
H         -2.59887       -1.66659       -0.71816
H         -1.28242       -2.88650       -0.76714
H         -2.16293       -2.56242        0.77334
C         -1.74963       -2.09588       -0.14608
O          0.15411       -0.60673       -0.84114
H         -1.13493       -0.18508        0.81404
H          1.34916       -0.68809        0.95761
H          1.08275       -2.31997        0.08616
