16
1,2-DIMETHOXYETHANE.gamout	Energy:    -308.6193680
C          1.75518        2.06237        3.91478
C          1.82502        1.17165        2.67836
O          2.72479        1.76201        1.76353
O          0.85565        1.47183        4.82972
C          2.87648        1.01750        0.57756
C          0.70305        2.21687        6.01524
H          1.42302        3.08870        3.61350
H          2.77964        2.16908        4.35448
H          0.80062        1.06512        2.23850
H          2.15693        0.14525        2.97970
H          3.27629       -0.00958        0.77127
H          1.91245        0.90349        0.02042
H          3.59499        1.55721       -0.07128
H          0.30257        3.24356        5.82084
H         -0.01527        1.67700        6.66415
H          1.66681        2.33188        6.57265
