8
1,2-DIBROMOTETRAFLUOROETHANE.gamout	Energy:   -5623.4355633
C         39.02486       20.01620       -0.04923
C         37.45440       19.94706       -0.00892
Br        39.70787       21.67057        0.75636
F         39.54133       18.95108        0.58236
F         39.39851       19.96828       -1.34365
F         36.94300       21.03019       -0.61384
F         37.07794       18.85311       -0.70002
Br        36.76706       19.82027        1.82527
