8
1,2-DIFLUOROTETRACHLOROETHANE.gamout	Energy:   -2116.0546706
Cl         0.01384        0.96825       -0.05023
C          1.52199        1.93727       -0.01666
Cl         1.15021        3.68209       -0.06718
C          2.35905        1.56436        1.27655
F          2.27014        1.60876       -1.09116
Cl         3.93624        2.41726        1.23169
F          2.58831        0.23467        1.24070
Cl         1.46555        1.97186        2.76650
