14
1,2-DICHLORO-4-NITROBENZENE.gamout	Energy:   -1355.4455556
C          6.29833        1.88915       -0.67795
C          6.81208        0.62789       -0.34151
C          4.90920        2.05522       -0.72459
C          4.04970        0.97505       -0.43830
C          4.59125       -0.29229       -0.09984
Cl         2.33169        1.21351       -0.50457
Cl         3.55097       -1.63869        0.25756
C          5.98353       -0.46418       -0.05193
N          8.28573        0.43464       -0.28791
O          8.69960       -0.68734        0.01130
O          8.99135        1.41181       -0.54725
H          6.98933        2.71453       -0.89637
H          4.46885        3.02868       -0.98475
H          6.42863       -1.43406        0.20694
