21
1,2-EPOXY-3-PHENOXYPROPANE.gamout	Energy:    -499.0014667
O          2.80277       -4.13828        0.56783
O          0.49400       -1.36580       -0.02042
C          2.25553       -2.94828       -0.00797
C          3.22793       -2.87522        1.10054
C          0.77366       -2.73923        0.22661
C         -0.80192       -0.93063        0.02296
C         -1.00671        0.42426       -0.32576
C         -1.90387       -1.73419        0.38845
C         -2.29882        0.96365       -0.31541
C         -3.19680       -1.17522        0.39365
C         -3.40495        0.16754        0.04272
H          2.60177       -2.70778       -1.03384
H          4.27826       -2.59652        0.88882
H          2.87175       -2.63628        2.12182
H          0.18423       -3.39184       -0.46106
H          0.51740       -3.02973        1.27289
H         -0.13117        1.03016       -0.60471
H         -1.76862       -2.78755        0.67312
H         -2.44437        2.02010       -0.59257
H         -4.05132       -1.80928        0.68022
H         -4.41983        0.59411        0.04901
