19
1,2-DIMETHYLCYCLOPENTENE.gamout	Energy:    -273.7559085
C          4.24166        1.96356        3.89019
C          2.76523        1.82005        4.34079
C          2.04068        1.36020        3.08508
C          4.17671        2.10385        2.34758
C          2.82147        1.51737        1.98246
C          2.47295        1.23709        0.54978
C          0.62577        0.86461        3.15707
H          4.76487        2.80945        4.38144
H          4.79902        1.03954        4.15327
H          2.33918        2.79023        4.69541
H          2.64157        1.10793        5.18779
H          5.01742        1.58607        1.83282
H          4.23298        3.17128        2.02162
H          3.18073        0.50519        0.09915
H          1.44740        0.83514        0.42683
H          2.54894        2.16008       -0.06942
H         -0.04741        1.63669        3.59455
H          0.21813        0.58634        2.16469
H          0.54459       -0.02613        3.82003
