15
1,2-PROPANEDIAMINE.gamout	Energy:    -229.6595950
C          3.23922        2.11233        1.68927
C          1.74894        2.06510        2.09399
C          1.00773        0.90516        1.40027
N          1.16041        3.39354        1.84126
N          3.38387        2.56692        0.29924
H          3.66240        1.08774        1.77216
H          3.78225        2.75005        2.43123
H          1.71796        1.90126        3.19550
H         -0.07892        0.93091        1.62880
H          1.13991        0.98239        0.30010
H          1.39723       -0.08562        1.72063
H          1.03797        3.49106        0.82068
H          0.20429        3.42267        2.22237
H          4.33326        2.36932       -0.04087
H          3.29382        3.59254        0.27956
