22
1,2-DIMETHYLCYCLOHEXENE.gamout	Energy:    -313.0414096
C          1.73359        4.53126        1.97644
C          2.46736        3.21239        1.88889
C          1.93152        2.00566        2.22946
C          3.89872        3.34238        1.38749
C          0.50812        1.79634        2.69216
C          2.74370        0.71955        2.16019
C          4.54614        2.01312        0.97400
C          4.25740        0.93443        2.02432
H          2.32931        5.26991        2.55935
H          0.73952        4.45608        2.45518
H          1.59261        4.98103        0.96707
H          4.51151        3.83302        2.18330
H          3.91505        4.05887        0.53404
H          0.01464        1.00435        2.08442
H         -0.12225        2.70304        2.62885
H          0.47810        1.43543        3.74578
H          2.36799        0.10722        1.30387
H          2.52481        0.10666        3.06536
H          5.63953        2.14732        0.82782
H          4.13107        1.68858       -0.00731
H          4.75910       -0.02231        1.76310
H          4.67645        1.25650        3.00460
