108
1,2-DIPALMITIN.gamout	Energy:   -1749.5471335
O        -11.19211        0.53365        1.04700
C        -12.45565        0.15620        0.67810
C        -13.44024        0.43109        1.79940
C        -13.81427        1.92708        1.89774
C        -14.78186        2.22893        3.05113
C        -15.16695        3.71249        3.16086
C        -16.09808        4.02419        4.34255
C        -16.48389        5.50678        4.46131
C        -17.39901        5.81620        5.65614
C        -17.77839        7.29935        5.78757
C        -18.68955        7.60424        6.98659
C        -19.05808        9.08883        7.13183
C        -19.97065        9.38957        8.33078
C        -20.32909       10.87547        8.48737
C        -21.24467       11.17357        9.68434
C        -21.59851       12.66057        9.84777
C        -22.51727       12.94607       11.04238
C        -10.14950        0.43200        0.04922
C         -9.34305       -0.85556        0.30133
C         -9.93806       -2.13592       -0.29846
O         -9.25198       -3.29242        0.14746
O         -7.93639       -0.75132       -0.09580
C         -7.61949       -0.31910       -1.35369
C         -6.12721       -0.44617       -1.60299
C         -5.76316       -1.85158       -2.13426
C         -4.26310       -2.02806       -2.41312
C         -3.90465       -3.41535       -2.96845
C         -2.40431       -3.61166       -3.23477
C         -2.05126       -4.99249       -3.80918
C         -0.55115       -5.19588       -4.07029
C         -0.20139       -6.57314       -4.65493
C          1.29809       -6.77886       -4.91766
C          1.64551       -8.15559       -5.50483
C          3.14400       -8.36162       -5.77280
C          3.48958       -9.73853       -6.36066
C          4.98694       -9.94490       -6.63335
C          5.33128      -11.32055       -7.22647
C          6.82790      -11.51828       -7.49643
O        -12.73137       -0.30557       -0.41382
O         -8.43631        0.07616       -2.16547
H        -12.98884        0.10211        2.75989
H        -14.34162       -0.18397        1.60614
H        -14.26493        2.25280        0.93351
H        -12.88268        2.52133        2.02258
H        -15.70346        1.61375        2.93421
H        -14.32101        1.89786        4.01067
H        -15.65162        4.03977        2.21212
H        -14.23987        4.32475        3.24931
H        -15.61084        3.69510        5.28965
H        -17.02389        3.40961        4.25524
H        -16.98131        5.83516        3.51944
H        -15.55734        6.12172        4.53911
H        -16.90135        5.47922        6.59500
H        -18.32879        5.20632        5.57695
H        -16.84953        7.91048        5.86852
H        -18.27565        7.63663        4.84869
H        -18.19218        7.25514        7.92123
H        -19.62388        7.00184        6.90399
H        -19.54977        9.43871        6.19451
H        -18.12511        9.69242        7.22124
H        -19.47810        9.02931        9.26382
H        -20.90870        8.79415        8.24074
H        -20.81504       11.23625        7.55103
H        -19.39217       11.47164        8.58460
H        -20.75801       10.80699       10.61833
H        -22.18500       10.58245        9.58782
H        -22.07881       13.02437        8.91057
H        -20.65869       13.25006        9.94834
H        -23.48097       12.40063       10.95036
H        -22.75229       14.02709       11.13220
H        -22.04881       12.62658       11.99816
H         -9.49795        1.31369        0.20714
H        -10.58656        0.46404       -0.96510
H         -9.26590       -0.98866        1.40047
H        -10.99296       -2.23027        0.02957
H         -9.95851       -2.04256       -1.41128
H         -8.30837       -3.15278       -0.06312
H         -5.57202       -0.24078       -0.66444
H         -5.85076        0.32162       -2.35372
H         -6.34447       -2.04565       -3.06264
H         -6.09248       -2.61712       -1.39564
H         -3.68992       -1.84404       -1.47559
H         -3.92663       -1.24398       -3.12985
H         -4.47387       -3.59030       -3.91022
H         -4.25736       -4.19772       -2.25706
H         -1.83777       -3.45113       -2.28841
H         -2.04627       -2.82031       -3.93355
H         -2.61607       -5.15015       -4.75706
H         -2.41425       -5.78357       -3.11255
H          0.01212       -5.04624       -3.12003
H         -0.18534       -4.40027       -4.76036
H         -0.76648       -6.72274       -5.60412
H         -0.56668       -7.36865       -3.96446
H          1.86249       -6.63141       -3.96768
H          1.66443       -5.98266       -5.60681
H          1.07733       -8.30421       -6.45239
H          1.28215       -8.95170       -4.81399
H          3.71182       -8.21371       -4.82490
H          3.50770       -7.56563       -6.46360
H          2.91850       -9.88745       -7.30649
H          3.12825      -10.53424       -5.66824
H          5.55817       -9.80027       -5.68671
H          5.34977       -9.14724       -7.32305
H          4.75784      -11.46294       -8.17103
H          4.96715      -12.11555       -6.53601
H          7.21429      -10.75954       -8.21062
H          7.03962      -12.51894       -7.92720
H          7.42391      -11.42444       -6.56298
