24
1,2-DIMETHYLNAPHTHALENE.gamout	Energy:    -464.1795788
C          4.65649        3.90951        0.94033
C          4.65886        5.42269        0.98702
C          3.39380        3.21115        0.91238
C          5.85605        3.17741        0.92426
C          3.36941        1.76515        0.86860
C          2.13814        3.89777        0.92614
C          7.21543        3.84892        0.95208
C          5.80646        1.74886        0.88050
C          4.60719        1.05830        0.85355
C          2.11483        1.08302        0.84171
C          0.93293        3.20571        0.89908
C          0.91706        1.78444        0.85650
H          5.68148        5.84097        1.00722
H          4.14285        5.85900        0.10420
H          4.12935        5.80577        1.88636
H          2.12197        4.99715        0.95869
H          7.36117        4.46534        1.86526
H          8.02600        3.09359        0.93354
H          7.37092        4.52050        0.08051
H          6.75707        1.19045        0.86832
H          4.59587       -0.04339        0.82030
H          2.11647       -0.01908        0.80878
H         -0.01791        3.76221        0.91061
H         -0.04364        1.24597        0.83554
