8
1,2-DICHLOROETHANE.gamout	Energy:    -998.7565771
C          2.38717        0.75320        0.82792
C          1.50453        1.85593        1.39209
Cl        -0.04363        1.13608        2.00164
Cl         3.93332        1.47369        0.21402
H          1.89495        0.23709       -0.01866
H          2.64794        0.00806        1.60423
H          1.24641        2.60259        0.61637
H          1.99532        2.37013        2.24065
