10
1,2-BUTADIENE.gamout	Energy:    -155.8552333
C          2.73781        2.11924        2.30703
C          1.57842        2.09460        1.67376
C          0.94122        0.87076        1.05455
C          3.89544        2.13954        2.93862
H          1.01930        3.04750        1.58529
H          1.57059       -0.03027        1.19193
H         -0.05512        0.67147        1.50632
H          0.77667        1.01753       -0.03530
H          3.96361        1.96675        4.02804
H          4.84328        2.33208        2.40385
