18
1,2-DIBROMOCYCLOHEXANE.gamout	Energy:   -5382.7361571
Br        -3.31789        0.18250        2.80523
C         -3.86854        1.02350        1.09201
C         -5.08630        1.93497        1.26935
C         -4.16262       -0.08343        0.06445
Br        -4.74996        3.41277        2.55220
C         -5.52521        2.53434       -0.07791
C         -4.60736        0.50634       -1.28737
C         -5.81987        1.43210       -1.11174
H         -2.98636        1.62174        0.78471
H         -5.91549        1.36047        1.73166
H         -3.26045       -0.71841       -0.05504
H         -4.96109       -0.74182        0.47286
H         -4.72028        3.20383       -0.45410
H         -6.41609        3.17429        0.08801
H         -4.83812       -0.31742       -1.99585
H         -3.76396        1.07731       -1.73913
H         -6.10781        1.89403       -2.08021
H         -6.69900        0.83649       -0.77579
