13
1,2-PENTADIENE.gamout	Energy:    -195.1380983
C          0.82068        2.01932        1.01685
C          1.15123        3.50331        1.19278
C          1.96404        1.06348        1.30338
C          3.18601        1.39635        1.68136
C          4.40853        1.71930        2.05820
H          0.46203        1.82741       -0.02125
H         -0.03662        1.73726        1.67163
H          1.47345        3.72469        2.23151
H          0.26920        4.13691        0.96737
H          1.97649        3.81494        0.51936
H          1.74207       -0.01543        1.18036
H          4.68051        1.81176        3.12533
H          5.21004        1.90804        1.32115
