14
1,2-DICHLOROBUTANE.gamout	Energy:   -1077.3278691
C          2.09888        2.39227        1.71943
C          0.72853        1.77017        1.43974
C          3.27539        1.65210        1.08456
Cl         3.43242       -0.03840        1.79298
C          4.63867        2.31122        1.29589
Cl         4.72961        3.91105        0.43958
H          2.14032        3.43183        1.32498
H          2.28022        2.46475        2.81490
H         -0.07680        2.34850        1.93636
H          0.50542        1.75106        0.35185
H          0.68214        0.72734        1.81409
H          3.10669        1.49371       -0.00089
H          4.83079        2.49760        2.37104
H          5.44809        1.67840        0.88688
