29
1,2-BENZOFLUORENE.gamout	Energy:    -654.5914674
C          0.18145        2.04382        0.00021
C          2.44305       -1.61665        0.00031
C         -3.06155        1.32120        0.00010
C          1.56888        2.06729       -0.00009
C          3.76598        0.87793       -0.00042
C          3.83159       -1.55857        0.00032
C         -3.36221       -1.50817       -0.00028
C         -4.34111        0.73611        0.00016
C          4.49977       -0.30223        0.00001
C         -4.49229       -0.66469        0.00010
C         -0.72086       -1.59527       -0.00015
C         -0.49151        0.78913        0.00024
C          0.23249       -0.41692        0.00019
C         -1.93112        0.48226       -0.00016
C         -2.08613       -0.93261       -0.00037
C          1.65791       -0.42212        0.00005
C          2.33813        0.85895       -0.00036
H         -0.57974       -2.25170       -0.88924
H         -0.58026       -2.25198        0.88880
H         -0.39085        2.98488        0.00224
H          1.93470       -2.59392        0.00033
H         -2.95234        2.41746        0.00004
H          2.10687        3.02942       -0.00033
H          4.27932        1.85355       -0.00069
H          4.42089       -2.48947        0.00065
H         -3.48766       -2.60334       -0.00042
H         -5.23506        1.38009        0.00039
H          5.60084       -0.26907        0.00003
H         -5.50209       -1.10519        0.00013
