13
1,2-PROPYLENE_GLYCOL.gamout	Energy:    -269.3618849
C          0.70725        2.27921        1.56432
O         -0.23970        1.88044        2.54313
C          1.94625        1.37483        1.66997
C          1.62447       -0.08357        1.36657
O          2.93938        1.80362        0.73792
H          0.31144        2.20145        0.52030
H          1.03422        3.34293        1.71051
H         -1.04700        2.40951        2.41311
H          2.32169        1.44648        2.72289
H          0.80347       -0.43321        2.02257
H          1.30346       -0.18659        0.30834
H          2.51707       -0.72202        1.52151
H          3.22232        2.69893        1.00391
