14
1,2-DIBROMOBUTANE.gamout	Energy:   -5305.3634353
C          2.41362        1.60622        0.10109
C          1.30024        0.57502       -0.06223
C          0.29207        0.78129       -1.19993
Br         2.27970       -1.15383       -0.40411
Br         1.81439        3.26661        1.01285
C         -0.70233        1.93708       -1.00477
H          3.22421        1.22253        0.74373
H          2.82929        1.92074       -0.87541
H          0.79475        0.39184        0.90697
H          0.86056        0.90930       -2.14742
H         -0.27578       -0.16601       -1.31343
H         -1.44833        1.93229       -1.82666
H         -1.25979        1.83997       -0.04953
H         -0.20902        2.92820       -0.99883
