8
1,2-DIBROMOETHANE.gamout	Energy:   -5226.7986594
Br         0.00765       -0.03632       -0.00010
C          1.69515        0.99549        0.00012
C          1.37494        2.47612       -0.00012
Br         3.06245        3.50791        0.00010
H          2.25177        0.68799        0.90481
H          2.25210        0.68780       -0.90430
H          0.81833        2.78364       -0.90481
H          0.81799        2.78383        0.90429
