8
1,2-DICHLORO-1,1,2-TRIFLUOROETHANE.gamout	Energy:   -1296.2372689
C         -0.57950        1.28112       -0.11476
C          0.97132        1.27561       -0.08171
F          1.43089        0.08963       -0.55455
F         -1.04328        1.11258       -1.36335
Cl         1.60951        2.63085       -1.07314
H          1.31428        1.43310        0.96197
F         -1.03514        2.45532        0.36506
Cl        -1.19516       -0.05362        0.93424
