12
1,3,5-TRIFLUOROBENZENE.gamout	Energy:    -529.5602687
C          6.32351        1.84854       -0.66758
C          6.89198        0.60966       -0.33669
C          4.93746        2.05530       -0.72496
F          7.14159        2.88030       -0.94139
C          6.01307       -0.44678       -0.05666
C          4.61832       -0.30350       -0.09698
F          6.52768       -1.64730        0.26389
C          4.11117        0.95979       -0.43440
F          2.77774        1.12861       -0.48129
H          7.98096        0.47250       -0.29851
H          4.51641        3.03522       -0.98689
H          3.95052       -1.14623        0.12664
