16
1,3,5,7-CYCLOOCTATETRAENE.gamout	Energy:    -309.3405476
C         -1.73066       -0.66982       -0.00032
C         -1.72255        0.69049       -0.00032
C         -0.69049       -1.72255        0.00032
C         -0.66982        1.73065        0.00032
C          0.66982       -1.73065        0.00032
C          0.69049        1.72255        0.00032
C          1.72255       -0.69049       -0.00032
C          1.73065        0.66982       -0.00032
H         -2.74528       -1.10602       -0.00083
H         -2.73191        1.13869       -0.00083
H         -1.13869       -2.73190        0.00083
H         -1.10602        2.74528        0.00083
H          1.10600       -2.74529        0.00083
H          1.13869        2.73191        0.00083
H          2.73191       -1.13869       -0.00083
H          2.74529        1.10600       -0.00083
