12
1,3,5-TRICHLOROBENZENE.gamout	Energy:   -1610.5742046
C          6.34538        1.87598       -0.67468
C          6.86342        0.61319       -0.33773
C          4.94859        2.02985       -0.71806
C          4.07591        0.96444       -0.43571
Cl         4.27801        3.59061       -1.13519
C          4.63566       -0.28149       -0.10294
C          6.02659       -0.47873       -0.04824
Cl         3.57151       -1.62330        0.25308
Cl         8.59778        0.39390       -0.27696
H          7.01300        2.71842       -0.89799
H          2.98736        1.10165       -0.47402
H          6.44709       -1.45852        0.21339
