15
1,3,5-CYCLOHEPTATRIENE.gamout	Energy:    -271.3086893
C          3.09864        3.02020        2.93944
C          3.94289        1.76948        3.02951
C          1.65394        2.58485        3.02717
C          3.95353        0.84168        2.02602
C          1.06051        1.86827        2.02553
C          3.05030        0.81786        0.89463
C          1.74693        1.27943        0.89504
H          3.35288        3.73860        3.74294
H          3.28047        3.52229        1.95998
H          4.57863        1.61530        3.91891
H          1.06210        2.87004        3.91447
H          4.68825        0.01798        2.08460
H         -0.02906        1.69329        2.08451
H          3.38192        0.25119        0.00639
H          1.13175        1.04742        0.00746
