18
1,3,5-TRINITROBENZENE.gamout	Energy:    -845.1881800
C          6.32156        1.85730       -0.63251
C          6.88840        0.60050       -0.38465
C          4.93773        2.07192       -0.64051
N          7.23283        3.01590       -0.89861
C          6.01335       -0.46503       -0.13964
C          4.62092       -0.31138       -0.13487
N          6.58687       -1.82234        0.12695
C          4.11211        0.96873       -0.38791
N          2.62792        1.16807       -0.38689
O          5.78599       -2.73203        0.33549
O          7.81269       -1.92073        0.11538
O          2.22063        2.30667       -0.61070
O          1.93371        0.17844       -0.16068
O          8.44102        2.78720       -0.88184
O          6.70118        4.10390       -1.11300
H          7.97726        0.45706       -0.38295
H          4.51583        3.06693       -0.83653
H          3.95481       -1.16263        0.06018
