21
1,3,5-TRIMETHYLBENZENE.gamout	Energy:    -349.9354936
C          1.90288        4.00936        2.07901
C          0.60602        4.78798        2.14510
C          3.05813        4.58135        1.50482
C          4.26901        3.86648        1.41076
C          5.50405        4.50790        0.81513
C          4.30700        2.54578        1.90694
C          3.17570        1.94235        2.49219
C          1.98138        2.68972        2.56832
C          3.24003        0.53392        3.04443
H          0.78841        5.86873        2.31619
H          0.03329        4.70316        1.19483
H         -0.05062        4.41464        2.95665
H          3.01020        5.61443        1.11819
H          6.04858        5.11305        1.57381
H          6.21553        3.74818        0.43269
H          5.24770        5.19237       -0.01946
H          5.24651        1.97020        1.83976
H          1.08585        2.23002        3.02163
H          2.35083       -0.06155        2.74959
H          4.14491       -0.00118        2.69299
H          3.26861        0.53870        4.15637
