30
1,3,5-TRIETHYLBENZENE.gamout	Energy:    -467.7828643
C          0.97016        5.99948        0.57835
C          1.28742        5.95960        2.08626
C          2.61277        5.28869        2.39842
C          3.80918        6.03347        2.45033
C          5.05281        5.41952        2.70754
C          6.33437        6.23334        2.72845
C          7.01170        6.33748        1.34799
C          5.08092        4.02506        2.91642
C          3.90578        3.24619        2.87481
C          3.95980        1.74208        3.07531
C          4.20017        0.95935        1.77057
C          2.68197        3.89648        2.61438
H          0.92453        4.97538        0.15205
H         -0.00485        6.49380        0.38395
H          1.75142        6.55523        0.01871
H          1.29276        6.99702        2.48688
H          0.47103        5.42457        2.61897
H          3.77017        7.12683        2.29953
H          6.11560        7.25588        3.10681
H          7.04529        5.77830        3.45240
H          6.33976        6.81911        0.60709
H          7.94514        6.93637        1.40162
H          7.27317        5.33371        0.95222
H          6.04507        3.53295        3.13524
H          4.76364        1.49831        3.80419
H          3.00713        1.40097        3.53667
H          4.23289       -0.13467        1.95813
H          3.39451        1.15362        1.03181
H          5.16017        1.25083        1.29478
H          1.75184        3.30129        2.59411
