10
1,3-BUTADIENE.gamout	Energy:    -155.8717109
C          1.01043        0.27838        0.97468
C          1.73191        0.75009        2.01880
C          3.13385        1.14934        1.94113
C          3.85495        1.62231        2.98493
H         -0.04667       -0.01010        1.08362
H          1.45987        0.16654       -0.02699
H          1.24879        0.84952        3.00899
H          3.61726        1.04894        0.95118
H          4.91202        1.91091        2.87598
H          3.40518        1.73522        3.98634
