14
1,3-DIOXANE.gamout	Energy:    -307.4368279
C         -3.11162        1.65440       -0.13734
C         -1.64960        1.99067       -0.46958
C         -2.64437       -0.61594       -0.41633
O         -3.50274        0.44105       -0.77977
H         -3.80999        2.44244       -0.48512
H         -3.23423        1.55402        0.97324
O         -1.30165       -0.40082       -0.78777
H         -2.99069       -1.51814       -0.95818
H         -2.70655       -0.78669        0.69652
C         -0.77769        0.76638       -0.15262
H         -1.30776        2.87802        0.10617
H         -1.56705        2.22878       -1.55156
H         -0.73467        0.60932        0.95729
H          0.26223        0.89014       -0.51713
