26
1,3-DIPHENYLTRIAZENE.gamout	Energy:    -627.6635054
C          7.00378        1.74601       -0.58382
C          7.19128        0.39616       -0.23631
C          5.69649        2.25086       -0.73870
C         -2.53824       -0.77161       -0.29739
C         -2.01724       -2.02084        0.08407
C         -1.65322        0.29141       -0.55879
C          4.58330        1.42178       -0.55090
C          0.25203       -1.13638       -0.06071
N          1.62623       -1.36288        0.06876
C         -0.26601        0.12277       -0.44496
C         -0.63272       -2.20834        0.20356
C          6.08249       -0.44147       -0.04547
C          4.76856        0.05960       -0.20141
N          3.73298       -0.87536        0.01512
N          2.55105       -0.43020       -0.15445
H          7.87274        2.40605       -0.73358
H          8.20918       -0.00662       -0.11263
H          5.54678        3.30860       -1.00985
H         -3.62552       -0.62717       -0.39047
H         -2.69473       -2.86396        0.29258
H         -2.04874        1.27502       -0.85870
H          3.56156        1.80996       -0.66947
H          1.97833       -2.29644        0.34130
H          0.42727        0.94986       -0.64905
H         -0.22880       -3.18937        0.50308
H          6.20149       -1.50128        0.22735
