10
1,3-PROPYLENE_OXIDE.gamout	Energy:    -192.9593624
C          2.06920        2.06415        0.90253
C          0.52344        2.03120        0.94527
C          1.94815        0.52180        0.90612
O          0.50403        0.58541        0.94509
H          2.56231        2.50631        1.79066
H          2.51234        2.50605       -0.01170
H          0.00421        2.45999        0.05563
H          0.05437        2.45903        1.86283
H          2.37158        0.00398        1.79914
H          2.32280        0.00332       -0.00806
