14
1,3-CYCLOHEXADIENE.gamout	Energy:    -233.2437639
C         -0.13131       -1.42908       -0.05578
C         -1.26583       -0.68407       -0.10082
C         -1.21571        0.77014        0.10064
C         -0.03225        1.43460        0.05604
C          1.24895        0.68718       -0.24851
C          1.19861       -0.77203        0.24825
H         -0.17436       -2.52601       -0.16475
H         -2.24455       -1.16367       -0.26816
H         -2.15878        1.31641        0.26859
H          0.00072        2.53169        0.16649
H          1.40624        0.70137       -1.35678
H          2.12836        1.20994        0.18312
H          1.35464       -0.79641        1.35656
H          2.03995       -1.35463       -0.18265
