22
1,3-DIMETHYL-4-ETHENYLBENZENE.gamout	Energy:    -387.9886357
C          5.57826        2.44007        2.05423
C          4.35077        1.97390        1.54146
C          5.74539        3.74001        2.57354
C          3.22568        2.85253        1.54047
C          4.25425        0.56696        0.99181
C          3.38996        4.15308        2.07683
C          1.92204        2.40985        1.00591
C          4.61950        4.59222        2.57948
C          7.08565        4.21158        3.09104
C          0.94068        3.20075        0.51578
H          6.44464        1.75621        2.04752
H          5.23681        0.05615        1.03439
H          3.53303       -0.05512        1.56609
H          3.91502        0.55624       -0.06582
H          2.51764        4.82400        2.12161
H          1.74584        1.31956        1.00431
H          4.70652        5.60923        2.99653
H          6.97304        4.85987        3.98477
H          7.74285        3.36177        3.36476
H          7.62457        4.81074        2.32337
H          1.04860        4.29580        0.44263
H         -0.00780        2.77120        0.15692
