13
1,3-PROPANEDIOL.gamout	Energy:    -269.3550242
C         -1.80734        4.80446       -0.94560
C         -0.43030        4.20750       -0.67128
C          0.69322        5.24024       -0.69294
H         -0.21552        3.42145       -1.42663
H         -0.44164        3.70573        0.32017
O         -2.76540        3.75671       -0.89520
H         -1.80041        5.31425       -1.94423
H         -2.02494        5.60288       -0.18875
H         -3.63997        4.14848       -1.07045
O          1.91754        4.57011       -0.42647
H          0.48131        6.03625        0.06751
H          0.70958        5.75372       -1.68947
H          2.62791        5.23663       -0.44194
