11
1,3-DICHLOROPROPANE.gamout	Energy:   -1038.0385822
Cl        -2.75877        0.28605        0.00000
C         -1.26332       -0.73875       -0.00000
C          0.00000        0.12258       -0.00000
C          1.26332       -0.73875       -0.00000
Cl         2.75877        0.28605        0.00000
H         -1.32304       -1.38571        0.89834
H         -1.32304       -1.38572       -0.89834
H          0.00001        0.78260       -0.89240
H          0.00001        0.78260        0.89239
H          1.32305       -1.38572        0.89834
H          1.32305       -1.38572       -0.89834
