13
1,3-PROPYLENE_GLYCOL.gamout	Energy:    -269.3567427
C          2.67971        0.09600        2.05496
O          1.29251       -0.00276        1.75550
C          3.46442       -0.34387        0.82040
C          4.97649       -0.27242        1.00046
O          5.35300       -1.15366        2.05520
H          2.97400       -0.54970        2.91676
H          2.97414        1.14581        2.31975
H          0.80127        0.20582        2.57043
H          3.16680        0.29168       -0.04209
H          3.17016       -1.38559        0.56660
H          5.47320       -0.54676        0.03599
H          5.27521        0.78414        1.22598
H          6.31298       -1.05905        2.19183
