14
1,3-DIMETHYLUREA.gamout	Energy:    -303.6620297
O         -0.02444        1.22379        0.29490
N          1.16926       -0.71515       -0.09853
N         -1.16807       -0.72089       -0.10046
C         -0.00438        0.01500        0.04998
C          2.46813       -0.08963        0.02676
C         -2.46328       -0.08002        0.02856
H          1.12025       -1.71391       -0.30107
H         -1.12953       -1.71919       -0.30480
H          3.06675       -0.16508       -0.90906
H          3.06894       -0.52361        0.85767
H          2.28641        0.98131        0.24422
H         -2.60290        0.37226        1.03473
H         -3.25730       -0.83575       -0.12929
H         -2.59702        0.73327       -0.71778
