15
1,3-DIAMINOPROPANE.gamout	Energy:    -229.6547025
C         -3.81494        1.35162       -0.15949
C         -2.69636        0.30489       -0.10513
C         -1.28731        0.90744       -0.08143
H         -2.77137       -0.37931       -0.98047
H         -2.85560       -0.32839        0.79716
N         -5.13296        0.71205       -0.10257
H         -3.64893        2.00813       -1.05668
H         -3.72192        2.02379        0.72384
H         -5.28083        0.15625       -0.95758
H         -5.87124        1.42875       -0.11261
N         -0.26740       -0.14568       -0.08130
H         -1.21947        1.62524        0.78082
H         -1.14221        1.52531       -0.99708
H         -0.32825       -0.68016        0.79768
H          0.67169        0.27504       -0.07953
