22
1,3-DIMETHYLCYCLOHEXENE.gamout	Energy:    -313.0405477
C          2.58564        4.61442        1.30024
C          4.02203        4.65411        1.84794
C          4.83572        3.45582        1.34032
C          1.95527        3.23492        1.38577
C          2.70551        2.13192        1.62262
C          0.46164        3.17014        1.18525
C          4.21304        2.11914        1.79274
C          4.85022        0.91449        1.07419
H          1.94425        5.34699        1.84181
H          2.56689        4.95265        0.23578
H          4.51216        5.61276        1.57344
H          3.99164        4.62734        2.96096
H          4.86982        3.48000        0.22615
H          5.89056        3.51578        1.68636
H          2.19624        1.15203        1.69539
H          0.16636        3.63082        0.21540
H          0.08375        2.12768        1.19568
H         -0.07743        3.74023        1.97547
H          4.42627        1.99524        2.88446
H          4.65916        0.95688       -0.01965
H          5.95011        0.89312        1.22707
H          4.43947       -0.04623        1.45031
