15
1,3-PROPANEDIAMINE.gamout	Energy:    -229.6552581
N          2.49803        0.33970        0.02097
N         -2.52815        0.30989        0.01024
C          0.02557        0.34796       -0.01668
C          1.29916       -0.50531       -0.03014
C         -1.28334       -0.46418        0.00818
H          0.06785        1.02691        0.86495
H          0.01861        1.01114       -0.91523
H          1.25804       -1.20367       -0.90929
H          1.30380       -1.15863        0.87226
H         -1.28795       -1.12436        0.90560
H         -1.30954       -1.15392       -0.86629
H          2.55076        0.90726       -0.83767
H          3.34215       -0.24915        0.00787
H         -2.55260        0.91994       -0.81990
H         -2.52670        0.95444        0.81415
