32
1,3-DIMETHYLADAMANTANE.gamout	Energy:    -469.0035291
C         -0.64393        0.60262       -0.08728
C          0.36808        0.75257       -1.24423
C          1.21668        0.96016        1.57731
C         -0.08245        2.93322        0.69685
H         -0.89990        1.34580        1.95259
C          2.25554        1.09779        0.43230
H          1.16073       -0.10247        1.90529
H          1.55693        1.54872        2.45982
C          1.75783        0.26493       -0.78007
C          0.45849        2.23686       -1.66026
H          0.03419        0.14376       -2.11380
C         -0.17358        1.44990        1.11623
H         -1.65516        0.93073       -0.41607
H         -0.73524       -0.46631        0.20866
H          2.49171        0.34851       -1.61361
H          1.71480       -0.81221       -0.50046
C          3.64004        0.61591        0.88940
H          4.00700        1.20732        1.75611
H          3.61350       -0.45184        1.19667
H          4.38860        0.71453        0.07378
C          0.92841        3.11288       -0.46728
C          2.31057        2.58836        0.00504
H          2.67158        3.20677        0.85938
H          3.05836        2.71330       -0.81193
C          1.02491        4.58832       -0.88192
H          0.04097        4.97577       -1.22365
H          1.36185        5.22223       -0.03333
H          1.75020        4.72362       -1.71298
H          0.23443        3.55752        1.56329
H         -1.08341        3.30666        0.38336
H          1.17025        2.35254       -2.50889
H         -0.53127        2.59843       -2.02017
