16
1,3-BUTANEDIOL.gamout	Energy:    -308.6434641
C         -2.34752       -1.23736        0.32131
C         -2.19988        0.14430       -0.31340
H         -0.94234        1.02824        1.22450
O          1.44998        1.11970        0.05158
H          2.28788        0.68540       -0.19083
H         -3.30439       -1.70050        0.00600
H         -1.52154       -1.91442        0.02359
H         -2.35662       -1.15206        1.42825
C         -0.92458        0.88988        0.12110
O         -3.36448        0.88370        0.05986
H         -3.25484        1.78860       -0.28851
C          0.39169        0.23206       -0.28766
H         -0.93293        1.91185       -0.32398
H          0.37181        0.01242       -1.38719
H          0.50019       -0.75303        0.23180
H         -2.16488        0.01656       -1.42844
