16
1,4-BUTANEDIOL.gamout	Energy:    -308.6392319
C          1.64081        0.45428        2.57878
C          1.59458        1.48092        1.44969
O          0.52618        2.38308        1.70709
C          2.76206       -0.57685        2.41245
C          2.80828       -1.60349        3.54154
O          3.87669       -2.50564        3.28416
H          0.65006       -0.05061        2.62736
H          1.75474        1.00334        3.54035
H          1.46320        0.94850        0.47246
H          2.58115        2.00941        1.39239
H          0.50641        3.03283        0.98157
H          3.75281       -0.07196        2.36387
H          2.64814       -1.12592        1.45088
H          1.82172       -2.13198        3.59884
H          2.93965       -1.07106        4.51877
H          3.89639       -3.15544        4.00965
