14
1,4-CYCLOHEXADIENE.gamout	Energy:    -233.2431588
C          1.72087        3.47360        0.89963
C          1.08042        2.10759        0.87745
C          1.78231        0.95638        0.86954
C          3.29057        0.90090        0.88134
C          3.93106        2.26707        0.88510
C          3.22917        3.41828        0.89337
H          1.36485        4.04727        1.79087
H          1.35768        4.07992        0.03357
H         -0.02309        2.06863        0.86767
H          1.24228       -0.00655        0.85333
H          3.65730        0.30937        0.00658
H          3.64299        0.31214        1.76413
H          5.03460        2.30613        0.88084
H          3.76922        4.38132        0.89580
