22
1,4-DIMETHYLCYCLOHEXENE.gamout	Energy:    -313.0390147
C          3.70596        1.72326        1.78546
C          2.50808        1.05521        1.08818
C          1.15932        1.67008        1.52358
C          3.48999        1.93056        3.27354
C          2.25734        1.81440        3.82470
C          4.71108        2.27443        4.08994
C          0.99694        1.49715        3.05284
C          1.02272        3.14354        1.09935
H          4.62508        1.11379        1.62756
H          3.93887        2.70807        1.31263
H          2.62388        1.11467       -0.01596
H          2.50019       -0.02757        1.34613
H          0.34690        1.09751        1.02246
H          2.15303        1.95496        4.91663
H          4.46051        2.45991        5.15408
H          5.21991        3.18277        3.69463
H          5.46690        1.45748        4.05164
H          0.67587        0.45325        3.28548
H          0.16467        2.13943        3.42158
H          1.76231        3.78848        1.61889
H          1.17469        3.26600        0.00568
H          0.01383        3.53825        1.34329
