24
1,4-DIMETHYLNAPHTHALENE.gamout	Energy:    -464.1786646
C          4.61504        4.81243        1.49514
C          4.63577        6.25099        1.01840
C          3.39599        4.09811        1.78907
C          5.82541        4.13849        1.65135
C          3.46371        2.71450        2.22955
C          2.10283        4.69794        1.66551
C          5.88846        2.79030        2.08231
C          4.73886        2.06098        2.37505
C          2.24206        2.02645        2.51266
C          0.93772        3.99754        1.94999
C          4.83434        0.62351        2.83278
C          1.00683        2.64582        2.37769
H          4.99845        6.31811       -0.02998
H          5.32444        6.86195        1.63873
H          3.64524        6.74014        1.05117
H          6.76693        4.67035        1.43346
H          2.02346        5.74474        1.33766
H          6.87436        2.30802        2.18912
H          2.28611        0.97884        2.84568
H         -0.04074        4.49243        1.84351
H          4.39202        0.47964        3.84221
H          5.89143        0.29497        2.88001
H          4.29894       -0.06839        2.14701
H          0.08205        2.09081        2.60202
