24
1,4-DIMETHYLCYCLOHEXANE.gamout	Energy:    -314.2651943
C         -0.25023       -1.30338        0.65434
C         -1.38565       -0.59123       -0.11074
C         -1.14159        0.93220       -0.11534
C          0.25023        1.30337       -0.65434
C          1.38566        0.59123        0.11075
C          1.14159       -0.93220        0.11534
H         -0.31577       -1.02549        1.73291
H         -0.39714       -2.40544        0.61139
H         -1.33962       -0.94060       -1.17107
C         -2.77063       -0.95018        0.44516
H         -1.93311        1.44160       -0.70865
H         -1.24556        1.31454        0.92779
H          0.31577        1.02549       -1.73291
H          0.39715        2.40544       -0.61139
C          2.77063        0.95018       -0.44517
H          1.33963        0.94060        1.17108
H          1.93311       -1.44160        0.70865
H          1.24556       -1.31453       -0.92779
H         -2.87048       -0.61992        1.50240
H         -2.95106       -2.04577        0.41924
H         -3.58231       -0.46181       -0.13481
H          2.95106        2.04577       -0.41925
H          2.87047        0.61992       -1.50241
H          3.58231        0.46181        0.13480
