14
1,4-DIOXANE.gamout	Energy:    -307.4280099
C          1.60688        3.20058        1.21097
C          1.00535        1.88300        1.70672
O          1.74471        0.77119        1.20893
C          3.11575        0.87286        1.58205
C          3.71742        2.19089        1.08736
O          2.97765        3.30251        1.58497
H          1.08156        4.07160        1.65620
H          1.50281        3.25580        0.09693
H         -0.04025        1.76400        1.35274
H          1.00380        1.87846        2.82684
H          3.64068        0.00240        1.13527
H          3.22070        0.81614        2.69592
H          3.72010        2.19602       -0.03275
H          4.76263        2.30975        1.44252
