14
1,4-DICHLOROBUTANE.gamout	Energy:   -1077.3254677
C          1.94970        0.95316        1.26352
C          0.88969        1.76252        2.02645
C          0.93235        3.27278        1.81485
C          3.39923        1.36344        1.50589
Cl         0.76060        3.74100        0.06167
Cl         3.86434        1.30927        3.26719
H          1.82393       -0.12458        1.50145
H          1.77256        1.06258        0.16935
H         -0.11931        1.37980        1.76256
H          1.02045        1.59424        3.11959
H          0.10442        3.77577        2.35091
H          1.88720        3.71197        2.16576
H          4.09905        0.68429        0.98155
H          3.60025        2.39703        1.16010
