13
1,4-PENTADIENE.gamout	Energy:    -195.1449676
C          0.83262        1.58087        1.44676
C          1.10838        1.19521        2.88359
C          2.53948        0.76351        3.11772
C          0.34926        2.76771        1.03836
C          3.38821        1.32687        3.99592
H          1.05407        0.80481        0.68867
H          0.43956        0.33914        3.14695
H          0.84113        2.03057        3.56561
H          2.89217       -0.08791        2.50408
H          0.16589        2.97868       -0.02765
H          0.11882        3.57524        1.75495
H          4.41884        0.95655        4.11955
H          3.08470        2.18063        4.62644
