22
1,4-DIMETHYL-2-ETHENYLBENZENE.gamout	Energy:    -387.9863897
C          0.62834        1.95649        4.04263
C          1.88331        1.44783        4.07699
C          3.01074        1.57144        3.13194
C          2.92342        2.00765        1.77317
C          4.28454        1.19777        3.63919
C          1.62393        2.39090        1.10422
C          4.11424        2.05877        1.01698
C          5.46820        1.26202        2.88548
C          5.36103        1.70434        1.54989
C          6.80615        0.87811        3.47776
H          0.24399        2.59021        3.23256
H         -0.06318        1.75716        4.87696
H          2.14448        0.85602        4.97455
H          4.34145        0.84663        4.68389
H          1.24262        3.37081        1.46714
H          1.76154        2.47871        0.00796
H          0.82478        1.64328        1.29274
H          4.05319        2.38522       -0.03468
H          6.26178        1.76179        0.91644
H          6.69349        0.41358        4.47776
H          7.34811        0.15831        2.82837
H          7.46556        1.76583        3.59529
