20
1,5-ETHYLCYCLOHEXADIENE.gamout	Energy:    -311.8136411
C         -1.36637        0.36171       -0.06824
C         -0.39217        1.31231       -0.08453
C          1.01282        0.88196       -0.23849
C          1.38581       -0.41159       -0.07496
C          0.36188       -1.46094        0.29686
C         -1.03444       -1.10475       -0.24860
C         -0.64749        2.80413        0.02666
C         -2.10622        3.24157        0.17355
H         -2.42726        0.64917        0.01128
H          1.77009        1.65280       -0.46496
H          2.44771       -0.69966       -0.15453
H          0.67342       -2.46347       -0.06502
H          0.32659       -1.53982        1.41296
H         -1.80713       -1.74157        0.23169
H         -1.07984       -1.34743       -1.34043
H         -0.19736        3.29557       -0.86841
H         -0.05169        3.19377        0.88581
H         -2.71863        2.92383       -0.69643
H         -2.18159        4.34562        0.24947
H         -2.57142        2.81117        1.08516
