22
1,5-DIMETHYLCYCLOHEXENE.gamout	Energy:    -313.0412379
C         -7.68628       -0.41027        0.52982
C         -6.28404       -0.28278       -0.10061
C         -8.65618        0.56490       -0.16358
C         -8.19103       -1.85899        0.49926
C         -5.83109        1.14817       -0.33137
C         -6.70755        2.17930       -0.28215
C         -4.36494        1.34432       -0.62646
C         -8.18670        2.02283       -0.02310
H         -7.60118       -0.09268        1.59669
H         -6.26024       -0.83031       -1.07620
H         -5.53462       -0.80707        0.53711
H         -9.68208        0.44846        0.24858
H         -8.71684        0.29725       -1.24415
H         -8.31963       -2.21185       -0.54753
H         -7.48046       -2.55117        0.99927
H         -9.17294       -1.96110        1.00816
H         -6.32812        3.20546       -0.44150
H         -4.11444        2.40766       -0.81613
H         -3.73140        0.98590        0.21639
H         -4.05314        0.75385       -1.51785
H         -8.42624        2.40527        0.99941
H         -8.75981        2.68055       -0.71513
