19
1,5-PENTANEDIOL.gamout	Energy:    -347.9278815
O          2.84562        4.33390        2.81671
C          3.97956        4.22837        1.97665
C          4.84856        2.99294        2.29441
C          4.05670        1.67364        2.36808
C          3.36564        1.22886        1.05059
C          1.83908        1.22741        1.08661
O          1.35465        2.57249        1.22504
H          2.17754        3.73380        2.40935
H          3.67983        4.20813        0.89874
H          4.59254        5.14771        2.11214
H          5.66044        2.91913        1.53379
H          5.34855        3.15236        3.27557
H          4.73877        0.87082        2.72060
H          3.29210        1.79256        3.16730
H          3.67769        0.19688        0.78023
H          3.69174        1.86865        0.19984
H          1.48496        0.59135        1.93504
H          1.44287        0.77676        0.14497
H          0.38572        2.54150        1.33055
