20
1,5-CYCLOOCTADIENE.gamout	Energy:    -311.7945315
C          4.28615        2.23133        1.87338
C          2.13041        1.66139        4.13844
C          3.26133        2.30936        0.99463
C          1.17738        2.26550        3.39336
C          1.95029        1.54849        0.99069
C          0.86680        2.14996        1.91932
H          3.37554        3.04835        0.17964
H          0.49582        2.94762        3.93612
H          1.54380        1.55551       -0.04324
H          2.10427        0.47924        1.23683
H         -0.07338        1.55805        1.80189
H          0.60288        3.16695        1.54805
C          4.46361        1.36346        3.09686
C          3.20612        0.68802        3.69773
H          2.15136        1.92900        5.21135
H          5.14795        2.89612        1.67439
H          4.94640        1.98460        3.88591
H          5.21660        0.57203        2.86408
H          3.53306        0.10140        4.58277
H          2.80465       -0.05818        2.98376
