16
1,5-HEXADIENE.gamout	Energy:    -234.4285705
C          2.13172        0.63842        3.39014
C          1.23294        1.82384        3.62994
C          0.67133        2.14770        4.80958
C          3.52262        1.00860        2.80781
C          3.46718        1.58890        1.41820
C          3.94613        2.79059        1.04630
H          1.63174       -0.06190        2.67921
H          2.26729        0.07579        4.33917
H          1.04346        2.47262        2.75340
H          0.02107        3.03132        4.91600
H          0.83632        1.53765        5.71533
H          4.13373        0.07681        2.78014
H          4.04349        1.71044        3.49486
H          2.99085        0.94692        0.65073
H          3.87804        3.14195        0.00380
H          4.43049        3.46786        1.77129
