21
1,5-PENTANEDIAMINE.gamout	Energy:    -308.2219565
N         -3.84394        0.30322       -0.00390
N          3.84394        0.30328        0.00399
C          0.00001       -0.45101       -0.00002
C         -1.28888        0.38490       -0.00311
C          1.28888        0.38492        0.00301
C         -2.58598       -0.44846        0.00485
C          2.58599       -0.44841       -0.00479
H          0.00202       -1.12599       -0.88753
H         -0.00198       -1.12593        0.88754
H         -1.29704        1.05284       -0.89667
H         -1.29363        1.06408        0.88202
H          1.29699        1.05298        0.89649
H          1.29365        1.06400       -0.88220
H         -2.58813       -1.11436        0.89803
H         -2.58729       -1.13311       -0.87401
H          2.58821       -1.11439       -0.89792
H          2.58724       -1.13300        0.87412
H         -3.87131        0.91677       -0.83112
H         -3.86820        0.94104        0.80486
H          3.87123        0.91693        0.83114
H          3.86827        0.94101       -0.80485
