22
1,5-NAPHTHALENE_DIISOCYANATE.gamout	Energy:    -720.3602253
C          1.35669        1.31713       -0.02686
C          2.50458        0.51940        0.00709
C          2.39474       -0.89163        0.07062
C          1.14925       -1.50724        0.10013
C         -0.04048       -0.72360        0.06664
C         -1.35035       -1.32497        0.09527
C         -2.49825       -0.52724        0.06132
C         -2.38840        0.88379       -0.00221
C         -1.14291        1.49939       -0.03171
C          0.04681        0.71575        0.00178
N         -1.42486       -2.71485        0.15681
C         -2.19753       -3.65513        0.19780
O         -2.83777       -4.64973        0.24107
N          1.43118        2.70701       -0.08841
C          2.20385        3.64729       -0.12932
O          2.84407        4.64190       -0.17270
H          3.49554        0.99837       -0.01546
H          3.31188       -1.50055        0.09680
H          1.05896       -2.60214        0.14962
H         -3.48919       -1.00623        0.08387
H         -3.30554        1.49272       -0.02839
H         -1.05261        2.59429       -0.08121
