24
1,5-DIMETHYLNAPHTHALENE.gamout	Energy:    -464.1814421
C          4.62011        4.94236        0.79012
C          4.56436        6.45219        0.71789
C          3.40907        4.15861        0.80922
C          5.84967        4.28717        0.84100
C          3.49051        2.71341        0.88366
C          2.11836        4.77120        0.75896
C          5.93445        2.87198        0.91300
C          2.27949        1.92971        0.90620
C          4.78105        2.10078        0.93582
C          0.96511        3.99968        0.77708
C          2.33558        0.42038        0.98314
C          1.04994        2.58464        0.85186
H          5.58395        6.88450        0.69368
H          4.03588        6.88813        1.59347
H          4.02673        6.80522       -0.18851
H          6.77670        4.88375        0.82269
H          2.04158        5.86694        0.70446
H          6.92384        2.38904        0.95396
H          4.85794        1.00512        0.99206
H         -0.02441        4.48272        0.74063
H          1.31562       -0.01187        0.99907
H          2.86483        0.06810        1.89465
H          2.86791       -0.01839        0.11121
H          0.12312        1.98762        0.86546
