19
1,5_DIMETHYL_2_PYRROLIDINONE.gamout	Energy:    -364.9930559
C          0.11340        2.05651       -0.16701
N          0.03156        0.61619       -0.04914
C          1.17772       -0.15840        0.05783
C          0.75229       -1.62287       -0.10822
C         -0.77764       -1.59496        0.02447
C         -1.18113       -0.14797       -0.36343
C         -2.43155        0.35945        0.35922
O          2.31433        0.27226        0.21915
H          1.17826        2.33074       -0.02722
H         -0.22376        2.40432       -1.17066
H         -0.49578        2.57638        0.60348
H          1.08258       -1.95219       -1.11837
H          1.27325       -2.26724        0.62662
H         -1.29583       -2.34582       -0.60487
H         -1.07589       -1.78551        1.07798
H         -1.37162       -0.09183       -1.46704
H         -2.28193        0.35550        1.45966
H         -2.70423        1.38906        0.04843
H         -3.29643       -0.29559        0.12515
