19
1,6-HEPTADIENE.gamout	Energy:    -273.7097959
C          3.63642        1.42049        3.49262
C          3.52598        0.76292        2.10699
C          3.05242        1.71171        0.98084
C          4.77934        2.38622        3.70821
C          1.63647        2.19717        1.16021
C          5.83873        2.59860        2.90483
C          1.23907        3.48346        1.17354
H          2.68244        1.94815        3.72634
H          3.71563        0.62557        4.27190
H          4.50244        0.31065        1.82553
H          2.81398       -0.08986        2.17453
H          3.11689        1.15841        0.01484
H          3.73815        2.58121        0.89285
H          4.72080        2.96458        4.65050
H          0.87048        1.40565        1.28505
H          6.62496        3.32003        3.18016
H          5.97404        2.06774        1.94758
H          1.96140        4.31020        1.05704
H          0.17865        3.75837        1.29526
