24
1,6-DIMETHYLNAPHTHALENE.gamout	Energy:    -464.1828928
C          5.54895        4.04589        1.16134
C          5.56338        5.55493        1.07472
C          4.30461        3.31871        1.14702
C          6.74254        3.33040        1.25632
C          4.32051        1.87483        1.23100
C          3.03236        3.96405        1.05213
C          6.76019        1.91096        1.33906
C          3.08306        1.16127        1.21581
C          5.57279        1.19463        1.32675
C          1.85117        3.23581        1.04023
C          1.85341        1.80806        1.12254
C          0.54734        1.04689        1.10631
H          6.59997        5.94568        1.09818
H          5.08956        5.92089        0.13789
H          5.01027        6.02315        1.91780
H          7.69789        3.88078        1.26765
H          2.98755        5.06167        0.98661
H          7.72533        1.38485        1.41295
H          3.11574        0.06020        1.28053
H          5.57832        0.09418        1.39036
H          0.88712        3.76639        0.96548
H         -0.10607        1.34930        1.95310
H         -0.02369        1.24639        0.17379
H          0.70999       -0.04694        1.17689
