20
1,6-DIBROMOHEXANE.gamout	Energy:   -5383.9303871
Br        -0.03149       -0.12987       -0.00011
C          1.63748        0.92637        0.00009
C          1.36973        2.42720       -0.00005
C          2.67662        3.24371        0.00014
C          2.43956        4.76259        0.00002
Br         5.14768        8.13617        0.00018
C          3.47871        7.07993        0.00002
C          3.74645        5.57910        0.00018
H          2.19498        0.60181        0.90050
H          2.19528        0.60166       -0.90008
H          0.75919        2.69469       -0.89039
H          0.75889        2.69478        0.89005
H          3.28843        2.96671        0.88913
H          3.28876        2.96665       -0.88862
H          1.82774        5.03957       -0.88897
H          1.82746        5.03969        0.88879
H          2.92093        7.40464        0.90021
H          2.92120        7.40450       -0.90037
H          4.35699        5.31162        0.89052
H          4.35728        5.31149       -0.88992
