22
1,6-DIMETHYLCYCLOHEXENE.gamout	Energy:    -313.0381763
C         -7.70843       -0.31320        0.63094
C         -6.26928       -0.29381        0.07090
C         -8.66210        0.58027       -0.17123
C         -5.82124        1.12110       -0.30518
C         -5.30512       -0.99367        1.05063
C         -6.70037        2.15104       -0.37593
C         -4.36199        1.32255       -0.64228
C         -8.18566        2.04100       -0.13188
H         -8.07868       -1.36146        0.65834
H         -7.68461        0.03718        1.68937
H         -6.25985       -0.89303       -0.87476
H         -9.69953        0.49613        0.21729
H         -8.68985        0.23330       -1.22920
H         -5.68387       -2.00482        1.31054
H         -5.20924       -0.41860        1.99703
H         -4.28781       -1.12302        0.62876
H         -6.31214        3.14979       -0.64969
H         -4.17117        2.34885       -1.01558
H         -3.69838        1.15475        0.23446
H         -4.02603        0.60768       -1.42760
H         -8.44005        2.50331        0.85330
H         -8.73293        2.65164       -0.88500
