22
1,6-HEXANEDIOL.gamout	Energy:    -387.2048975
O         -0.07390        9.03032       -0.00009
C          1.15280        8.31210        0.00012
C          2.30016        9.32015       -0.00009
C          3.68986        8.66993        0.00010
C          4.84340        9.68578       -0.00014
C          6.23310        9.03556        0.00008
C          7.38047       10.04360       -0.00011
O          8.60716        9.32536        0.00013
H         -0.79834        8.37877       -0.00000
H          1.24742        7.64838        0.89817
H          1.24748        7.64796       -0.89762
H          2.18269        9.97887       -0.88944
H          2.18264        9.97929        0.88894
H          3.79198        8.00450        0.88827
H          3.79204        8.00406       -0.88774
H          4.74130       10.35120       -0.88832
H          4.74124       10.35167        0.88769
H          6.35057        8.37683        0.88942
H          6.35065        8.37643       -0.88896
H          7.28589       10.70732       -0.89817
H          7.28579       10.70775        0.89762
H          9.33161        9.97690        0.00005
