22
1,7-OCTADIENE.gamout	Energy:    -312.9884471
C         -0.15761        0.08088       -0.00524
C          1.05157        0.65696       -0.13479
C          2.38475       -0.06582       -0.09339
H          2.40206       -0.85816       -0.87755
H          2.47758       -0.61577        0.87186
C          3.59996        0.85644       -0.27333
H          3.58291        1.64504        0.51439
H          3.50639        1.40043       -1.24165
C          4.94599        0.12227       -0.23024
H          4.96304       -0.66636       -1.01794
H          5.03957       -0.42171        0.73809
C          6.16120        1.04452       -0.41021
H          6.14389        1.83688        0.37393
H          6.06835        1.59445       -1.37548
C          7.49438        0.32175       -0.36880
C          8.70356        0.89783       -0.49837
H         -0.27025       -1.00703        0.14699
H         -1.08505        0.67444       -0.04597
H          1.09587        1.75324       -0.28562
H          7.45009       -0.77453       -0.21793
H          8.81621        1.98572       -0.65064
H          9.63100        0.30426       -0.45762
