29
1,9-DIBROMONONANE.gamout	Energy:   -5501.7789897
C        103.97472       10.04922        0.00099
C        102.67097        9.23494        0.00042
C        102.89833        7.71600        0.00102
C        103.75673       11.57031        0.00019
C        101.60340        6.88663        0.00018
C        105.07215       12.37369        0.00056
C        101.86919        5.36935        0.00061
C        104.81968       13.87680       -0.00040
C        100.58453        4.55132       -0.00044
Br       106.49817       14.91989       -0.00018
Br       100.94444        2.60569       -0.00008
H        104.58463        9.76535        0.88949
H        104.58573        9.76466       -0.88653
H        102.06031        9.51838       -0.88817
H        102.05902        9.51899        0.88793
H        103.50969        7.43526        0.88957
H        103.51100        7.43481       -0.88649
H        103.14858       11.85570       -0.88912
H        103.14745       11.85654        0.88845
H        100.98990        7.16011       -0.88920
H        100.98842        7.16043        0.88845
H        105.67921       12.09964        0.89132
H        105.68021       12.09871       -0.88924
H        102.47765        5.09776        0.89145
H        102.47917        5.09762       -0.88916
H        104.26630       14.20684       -0.90139
H        104.26535       14.20787        0.89962
H         99.96510        4.73313       -0.90066
H         99.96352        4.73320        0.89867
