26
1-(3-METHOXYPROPOXY)PROPAN-1-OL.gamout	Energy:    -501.6463272
O         -0.91388       -0.37076        0.19810
O          3.86945       -0.44526        0.25518
O         -2.41697        1.44495        0.27375
C          1.47915       -0.37731        0.22329
C          0.22391        0.34931       -0.25013
C         -2.15520        0.14917       -0.24138
C         -3.23975       -0.80312        0.25553
C          2.76919        0.30569       -0.22110
C         -4.64670       -0.42455       -0.21303
C          5.11305        0.10373       -0.11371
H          1.46269       -0.44607        1.33158
H          1.46691       -1.41899       -0.16210
H          0.21541        0.42729       -1.37055
H          0.20790        1.39347        0.14970
H         -2.14963        0.19030       -1.36635
H         -2.96312       -1.82511       -0.07861
H         -3.17837       -0.80563        1.36548
H          2.80374        0.38520       -1.34056
H          2.81296        1.35720        0.16918
H         -4.91199        0.59541        0.13072
H         -4.72571       -0.43957       -1.32167
H         -5.40401       -1.13116        0.18345
H         -2.05011        2.10149       -0.34524
H          5.90713       -0.54784        0.30252
H          5.25728        1.13922        0.28710
H          5.24160        0.15368       -1.22476
