23
1-(3-CYANOPROPYL)MIM+1.gamout	Energy:    -475.7338669
C         -7.49535       -1.65915       -0.03771
N         -6.04184       -1.42406       -0.01573
H         -8.00672       -0.68398       -0.12923
H         -7.81405       -2.15314        0.90065
H         -7.76470       -2.28898       -0.90750
C         -5.41412       -0.18924       -0.01468
C         -4.05596       -0.42169        0.02272
H         -5.97342        0.75223       -0.04026
N         -3.87810       -1.79733        0.04435
H         -3.22263        0.28645        0.03475
C         -5.09460       -2.38483        0.02043
H         -5.28059       -3.46527        0.02928
C         -2.59301       -2.54767        0.08216
C         -1.36358       -1.63968        0.13393
H         -2.56472       -3.19440       -0.81980
H         -2.62788       -3.21022        0.97232
C         -0.05888       -2.47124        0.18703
H         -1.40650       -0.98361        1.02880
H         -1.33255       -0.98375       -0.76209
C          1.12598       -1.60832        0.22624
H          0.02177       -3.13948       -0.69863
H         -0.04680       -3.12945        1.08358
N          2.05283       -0.89357        0.25558
