25
1-AMINOHEPTANE.gamout	Energy:    -331.4814346
C         70.00639       10.03488       -0.01178
C         68.69134        9.23889       -0.00870
C         68.88428        7.71500       -0.00014
C         69.81089       11.55748       -0.01531
C         67.56836        6.91924        0.00320
C         71.12475       12.35030       -0.02706
C         67.76777        5.39869        0.01159
N         70.86920       13.79334        0.02354
H         70.61148        9.74265        0.87759
H         70.61333        9.73421       -0.89716
H         68.08527        9.52921       -0.89803
H         68.08427        9.53974        0.87611
H         69.49009        7.42409        0.88940
H         69.49203        7.41400       -0.88503
H         69.20384       11.84991       -0.90459
H         69.21986       11.87634        0.87165
H         66.96464        7.21323       -0.88557
H         66.96354        7.22314        0.88782
H         71.71568       12.07384        0.87553
H         71.73790       12.00979       -0.90499
H         66.79889        4.85678        0.01371
H         68.33554        5.06904        0.90805
H         68.33709        5.05938       -0.88031
H         71.76100       14.30677        0.04587
H         70.40798       14.09025       -0.84903
