26
1-BROMOOCTANE.gamout	Energy:   -2888.9780434
C         -0.08845       -0.11870       -0.00001
C          1.22208        0.67816       -0.00022
C          1.01690        2.20097        0.00014
C          2.32403        3.01007       -0.00006
C          2.10599        4.53034        0.00025
C          3.40531        5.35309        0.00001
C          3.14827        6.87205        0.00024
C          4.43820        7.68171       -0.00009
Br         4.09181        9.63057        0.00015
H          0.09600       -1.21314       -0.00027
H         -0.70544        0.11474        0.89434
H         -0.70594        0.11509       -0.89392
H          1.83223        0.39171       -0.88713
H          1.83273        0.39136        0.88624
H          0.40736        2.49063        0.88747
H          0.40689        2.49097       -0.88676
H          2.93396        2.72305       -0.88778
H          2.93444        2.72273        0.88723
H          1.49516        4.81536        0.88760
H          1.49471        4.81562       -0.88671
H          4.01783        5.07619       -0.88864
H          4.01832        5.07597        0.88826
H          2.54025        7.14754        0.88994
H          2.53974        7.14767       -0.88908
H          5.05658        7.49475       -0.89984
H          5.05716        7.49462        0.89924
