38
1-BROMODODECANE.gamout	Energy:   -3046.1091825
C        103.05817       10.98048        0.00083
C        101.75708       10.16209        0.00029
C        102.82610       12.49914        0.00051
C        104.11510       13.33566        0.00083
C        103.85902       14.85133        0.00033
C        105.14823       15.69412        0.00044
C        104.84946       17.18914       -0.00016
Br       106.49692       18.28288       -0.00024
C        101.96514        8.64012        0.00053
C        100.65211        7.84062       -0.00016
C        100.83938        6.31621        0.00002
C         99.51743        5.53002       -0.00078
C         99.70279        4.00807       -0.00065
H        103.67073       10.69904        0.88849
H        103.67149       10.69882       -0.88625
H        101.14631       10.44903       -0.88699
H        101.14537       10.44921        0.88688
H        102.21088       12.77603       -0.88692
H        102.21013       12.77634        0.88732
H        104.73190       13.06568        0.88876
H        104.73254       13.06524       -0.88652
H        103.24133       15.11839       -0.88807
H        103.24074       15.11891        0.88815
H        105.76548       15.44212        0.89043
H        105.76595       15.44151       -0.88905
H        104.28544       17.50240       -0.90042
H        104.28505       17.50307        0.89962
H        102.57323        8.34883        0.88811
H        102.57416        8.34872       -0.88639
H        100.04583        8.13670       -0.88753
H        100.04475        8.13681        0.88644
H        101.44377        6.01659        0.88761
H        101.44482        6.01653       -0.88684
H         98.91644        5.83466       -0.88785
H         98.91531        5.83468        0.88552
H         98.72892        3.47527       -0.00133
H        100.26745        3.66758        0.89378
H        100.26866        3.66759       -0.89434
