62
1-BROMOEICOSANE.gamout	Energy:   -3360.3718468
C         -0.40987       -0.06856       -0.00373
C          0.97656        0.58661       -0.00510
C          0.92774        2.12315       -0.00173
C          2.30720        2.79867       -0.00305
C          2.24531        4.33405        0.00030
C          3.61942        5.02098       -0.00108
C          3.54386        6.55571        0.00218
C          4.91165        7.25550        0.00062
C          4.82068        8.78932        0.00370
C          6.18098        9.50399        0.00189
C          6.07144       11.03649        0.00472
C          7.42227       11.76945        0.00247
C          7.28926       13.29994        0.00499
C          8.62769       14.05586        0.00227
C          8.46492       15.58334        0.00438
C          9.78758       16.36700        0.00113
C          9.58790       17.88991        0.00291
C         10.89255       18.70413       -0.00077
C         10.63956       20.22380        0.00076
C         11.92962       21.03319       -0.00319
Br        11.58153       22.98177       -0.00150
H         -0.34471       -1.17659       -0.00619
H         -0.99608        0.22947        0.89201
H         -0.99965        0.23323       -0.89586
H          1.55316        0.24199       -0.89375
H          1.55671        0.23823        0.87978
H          0.35029        2.46901        0.88716
H          0.34677        2.47275       -0.88686
H          2.88518        2.45521       -0.89222
H          2.88876        2.45150        0.88235
H          1.66569        4.67586        0.88902
H          1.66213        4.67953       -0.88468
H          4.19998        4.68206       -0.89024
H          4.20370        4.67843        0.88425
H          2.96131        6.89263        0.89083
H          2.95764        6.89616       -0.88271
H          5.49503        6.92173       -0.88860
H          5.49901        6.91834        0.88593
H          4.23493        9.12074        0.89229
H          4.23108        9.12396       -0.88114
H          6.76772        9.17641       -0.88738
H          6.77196        9.17331        0.88720
H          5.48194       11.36106        0.89332
H          5.47772       11.36391       -0.88002
H          8.01312       11.44972       -0.88688
H          8.01784       11.44706        0.88772
H          6.69506       13.61559        0.89362
H          6.69043       13.61795       -0.87969
H          9.22388       13.74646       -0.88712
H          9.22897       13.74438        0.88751
H          7.86494       15.88733        0.89312
H          7.85988       15.88909       -0.88032
H         10.39002       16.07088       -0.88851
H         10.39559       16.06936        0.88648
H          8.98219       18.18022        0.89197
H          8.97670       18.18140       -0.88201
H         11.50099       18.42472       -0.89134
H         11.50684       18.42375        0.88548
H         10.03471       20.49992        0.89236
H         10.02895       20.50055       -0.88674
H         12.54543       20.84687       -0.90484
H         12.55143       20.84636        0.89423
