56
1-BROMOOCTADECANE.gamout	Energy:   -3281.8058573
C          8.91305        0.43398        0.00007
C          7.61663       -0.39159       -0.00039
C          7.82237       -1.91398       -0.00003
C          8.66404        1.95003       -0.00024
C          6.50289       -2.70282       -0.00046
C          9.93680        2.81048        0.00025
C          6.66720       -4.23021       -0.00004
C          9.64862        4.31980       -0.00007
C          5.32848       -4.98577       -0.00042
C         10.90203        5.20699        0.00037
C          5.45863       -6.51649        0.00006
C         10.58410        6.71122        0.00003
C          4.10608       -7.24647       -0.00026
C         11.83699        7.60469        0.00039
C          4.21195       -8.77889        0.00030
C         11.48432        9.08804       -0.00001
C          2.85066       -9.49344       -0.00003
Br        13.09535       10.23724        0.00036
C          2.95311      -11.02345        0.00059
H          9.52816        0.15783        0.88764
H          9.52895        0.15758       -0.88688
H          7.00471       -0.10609       -0.88733
H          7.00389       -0.10580        0.88589
H          8.42895       -2.20816        0.88751
H          8.42976       -2.20848       -0.88691
H          8.04398        2.21731       -0.88736
H          8.04313        2.21753        0.88622
H          5.89946       -2.39977       -0.88728
H          5.89869       -2.39938        0.88571
H         10.55950        2.55189        0.88794
H         10.56031        2.55168       -0.88682
H          7.26574       -4.54033        0.88750
H          7.26650       -4.54076       -0.88692
H          9.02221        4.57123       -0.88746
H          9.02138        4.57145        0.88667
H          4.73247       -4.66844       -0.88726
H          4.73171       -4.66797        0.88574
H         11.53006        4.96354        0.88829
H         11.53080        4.96333       -0.88697
H          6.05088       -6.83861        0.88761
H          6.05157       -6.83910       -0.88685
H          9.95507        6.95139       -0.88831
H          9.95433        6.95165        0.88778
H          3.51568       -6.91913       -0.88730
H          3.51495       -6.91852        0.88606
H         12.46523        7.38003        0.89000
H         12.46590        7.37972       -0.88868
H          4.79992       -9.10958        0.88787
H          4.80066       -9.11017       -0.88657
H         10.91080        9.38333       -0.90018
H         10.91012        9.38365        0.89963
H          2.26598       -9.15805       -0.88696
H          2.26519       -9.15738        0.88612
H          1.95124      -11.50087        0.00032
H          3.49846      -11.39350        0.89532
H          3.49928      -11.39418       -0.89336
