23
1-BROMOHEPTANE.gamout	Energy:   -2849.6952761
C         16.97985       10.08450       -0.00011
C         18.28706        9.27392        0.00011
C         17.19491       11.60245        0.00022
C         18.06795        7.75392       -0.00019
C         19.36649        6.92997        0.00001
C         19.10812        5.41120       -0.00020
C         20.39750        4.60063        0.00005
Br        20.04968        2.65197       -0.00017
H         16.37302        9.79174       -0.88709
H         16.37250        9.79142        0.88641
H         18.89716        9.56103        0.88787
H         18.89763        9.56133       -0.88723
H         16.23136       12.15362        0.00003
H         17.76610       11.93180        0.89460
H         17.76662       11.93211       -0.89371
H         17.45694        7.46948       -0.88763
H         17.45649        7.46921        0.88684
H         19.97931        7.20616        0.88866
H         19.97973        7.20637       -0.88829
H         18.49991        5.13617       -0.88990
H         18.49948        5.13603        0.88916
H         21.01601        4.78713        0.89980
H         21.01644        4.78726       -0.89937
