20
1-BROMOHEXANE.gamout	Energy:   -2810.4126223
C         -0.10948        9.98276        0.00015
C          1.23588        9.24725       -0.00008
C          2.45269       10.18673        0.00004
C          3.80263        9.45194       -0.00016
C          5.01334       10.40418        0.00007
C          6.33951        9.65220       -0.00011
Br         7.88794       10.88163        0.00031
H         -0.96278        9.27289        0.00008
H         -0.21768       10.63294        0.89465
H         -0.21781       10.63327       -0.89408
H          1.29546        8.57636       -0.88735
H          1.29556        8.57601        0.88692
H          2.39915       10.85825        0.88796
H          2.39907       10.85858       -0.88762
H          3.85756        8.78202       -0.88903
H          3.85760        8.78159        0.88838
H          4.96932       11.06987        0.88964
H          4.96933       11.07031       -0.88917
H          6.46194        9.01806       -0.90025
H          6.46187        9.01752        0.89967
