14
1-BROMOBUTANE.gamout	Energy:   -2731.8470490
C         -0.09209       -0.05956       -0.04370
C          1.44784        0.00296       -0.04405
C         -0.74544        1.32877       -0.04360
C          2.08008       -1.38387       -0.04256
Br         4.05843       -1.30452       -0.04465
H         -0.43700       -0.63619        0.84437
H         -0.43735       -0.63627       -0.93158
H          1.80485        0.56817        0.84448
H          1.80458        0.56611       -0.93398
H         -0.44515        1.91421        0.85110
H         -1.85259        1.25770       -0.04336
H         -0.44553        1.91418       -0.93844
H          1.80935       -1.96762        0.85872
H          1.80748       -1.97046       -0.94143
