50
1-BROMOHEXADECANE.gamout	Energy:   -3203.2409015
C          0.62655        0.15505        0.00076
C          2.03696        0.76522        0.00043
C         -0.49212        1.20432        0.00095
C          3.17366       -0.26885        0.00025
C          4.57591        0.35833       -0.00008
C          5.72665       -0.66024       -0.00024
C          7.11958       -0.01239       -0.00048
C          8.28505       -1.01400       -0.00060
C          9.66906       -0.34712       -0.00073
C         10.84630       -1.33476       -0.00074
C         12.22356       -0.65402       -0.00072
C         13.40764       -1.63351       -0.00067
C         14.78084       -0.94482       -0.00054
C         15.96590       -1.92424       -0.00036
C         17.33712       -1.22215       -0.00009
C         18.48702       -2.22177        0.00019
Br        20.25934       -1.33813        0.00056
H          0.51515       -0.50971       -0.88648
H          0.51554       -0.50965        0.88810
H          2.14889        1.43081        0.88820
H          2.14852        1.43072       -0.88745
H         -1.49870        0.73646        0.00117
H         -0.42986        1.86116        0.89526
H         -0.43019        1.86109       -0.89343
H          3.06540       -0.93476       -0.88751
H          3.06577       -0.93465        0.88815
H          4.67975        1.02497        0.88761
H          4.67941        1.02487       -0.88789
H          5.62779       -1.32750       -0.88803
H          5.62811       -1.32745        0.88762
H          7.21344        0.65563        0.88727
H          7.21323        0.65557       -0.88831
H          8.19573       -1.68251       -0.88846
H          8.19592       -1.68247        0.88730
H          9.75431        0.32192        0.88711
H          9.75423        0.32189       -0.88860
H         10.76447       -2.00410       -0.88868
H         10.76452       -2.00405        0.88724
H         12.30317        0.01546        0.88724
H         12.30325        0.01551       -0.88864
H         13.33008       -2.30300       -0.88880
H         13.32996       -2.30296        0.88749
H         14.85945       -0.27606        0.88759
H         14.85969       -0.27608       -0.88866
H         15.88960       -2.59208       -0.88934
H         15.88929       -2.59205        0.88862
H         17.42429       -0.56157        0.89032
H         17.42468       -0.56161       -0.89050
H         18.48612       -2.86570       -0.90046
H         18.48574       -2.86563        0.90090
