12
1-BUTENE.gamout	Energy:    -157.0959437
C          1.30896        2.14095        1.66854
C          0.46559        2.89517        0.93969
C          1.98099        0.87350        1.20499
C          3.51873        0.96125        1.21722
H          1.55904        2.46688        2.69762
H          0.01471        3.81547        1.34526
H          0.18926        2.61664       -0.09259
H          1.66548        0.03576        1.87030
H          1.61953        0.61009        0.18674
H          3.97914       -0.00134        0.91210
H          3.88075        1.74982        0.52507
H          3.90132        1.20837        2.23048
