17
1-CHLOROPENTANE.gamout	Energy:    -657.1098609
C          3.18847        1.94224        3.73273
C          2.83114        1.53531        2.29641
C          1.32755        1.30573        2.08042
C          4.67543        2.16404        3.98863
C          0.96925        0.90177        0.64500
Cl         5.65173        0.63676        3.80048
H          2.67170        2.89617        3.99298
H          2.80778        1.18179        4.45047
H          3.19226        2.31976        1.59110
H          3.39316        0.61099        2.03630
H          0.97427        0.52156        2.78835
H          0.76913        2.22971        2.35653
H          5.11038        2.89733        3.27948
H          4.86269        2.52033        5.02039
H          1.47813       -0.04069        0.34942
H          1.27459        1.68311       -0.08363
H         -0.12252        0.74254        0.52587
