6
1-CHLORO-2,2-DIFLUOROETHYLENE.gamout	Energy:    -736.3468646
C         32.02163       17.99077        0.00000
C         30.67651       17.99388        0.00000
F         29.95833       19.11023       -0.00000
F         29.90507       16.92104        0.00000
Cl        32.94611       16.52632       -0.00000
H         32.57574       18.93859       -0.00000
