14
1-CHLOROBUTANE.gamout	Energy:    -617.8264188
C          2.51960        0.84101        1.17863
C          2.77421        2.21514        1.82441
C          1.56614        2.72210        2.60545
C          3.72325        0.31656        0.38603
Cl         1.87520        4.34629        3.35890
H          2.24309        0.10799        1.97003
H          1.63321        0.91060        0.50775
H          3.64932        2.15940        2.50876
H          3.03775        2.96019        1.04180
H          0.67772        2.84403        1.95333
H          1.29481        2.03679        3.43366
H          3.51031       -0.67236       -0.06964
H          3.99998        1.01160       -0.43483
H          4.61616        0.20074        1.03644
