11
1-CHLOROPROPANE.gamout	Energy:    -578.5435763
C          1.62971        1.91481        1.05765
Cl        -0.04263        2.16302        1.72247
C          2.44399        0.94265        1.90656
C          3.85560        0.72731        1.34151
H          1.50301        1.54525        0.01967
H          2.10501        2.91577        1.01017
H          2.49789        1.33224        2.94621
H          1.89797       -0.02364        1.96587
H          4.43118        1.67646        1.30194
H          4.42901        0.01606        1.97029
H          3.82389        0.31164        0.31189
