50
1-CHLOROHEXADECANE.gamout	Energy:   -1089.2195488
C        122.14829       10.09176        0.00077
C        123.44661        9.26927        0.00138
C        123.20664        7.75180        0.00101
C        122.35575       11.61393        0.00101
C        124.48747        6.90303        0.00134
C        121.04009       12.40889        0.00019
C        124.21762        5.39047        0.00083
C        121.21656       13.93489        0.00038
C        125.48363        4.52064        0.00083
C        119.88630       14.70537       -0.00055
C        125.18868        3.01219        0.00012
C        120.03769       16.23383       -0.00039
C        126.45198        2.13515       -0.00008
C        118.69741       16.98799       -0.00140
C        126.12048        0.64570       -0.00087
C        118.84489       18.51438       -0.00127
Cl       127.61628       -0.38550       -0.00119
H        121.53673        9.80589       -0.88632
H        121.53570        9.80574        0.88711
H        124.06089        9.54815        0.88874
H        124.06179        9.54841       -0.88528
H        122.58890        7.47956       -0.88618
H        122.58810        7.47923        0.88755
H        122.96353       11.90644        0.88838
H        122.96462       11.90654       -0.88559
H        125.10768        7.16870        0.88869
H        125.10830        7.16915       -0.88544
H        120.43497       12.10979       -0.88688
H        120.43374       12.10969        0.88639
H        123.59480        5.13040       -0.88653
H        123.59432        5.12986        0.88770
H        121.81830       14.23942        0.88779
H        121.81952       14.23948       -0.88618
H        126.10841        4.77376        0.88833
H        126.10879        4.77450       -0.88619
H        119.28681       14.39537       -0.88771
H        119.28549       14.39530        0.88570
H        124.56322        2.76251       -0.88815
H        124.56286        2.76170        0.88791
H        120.63486       16.54788        0.88706
H        120.63617       16.54792       -0.88695
H        127.07889        2.36460        0.88960
H        127.07914        2.36549       -0.88936
H        118.10379       16.66888       -0.88834
H        118.10241       16.66885        0.88459
H        125.53837        0.35559       -0.89883
H        125.53807        0.35468        0.89660
H        117.85771       19.02177       -0.00208
H        119.40082       18.86829        0.89341
H        119.40226       18.86829       -0.89505
