14
1-CHLORO-2-METHYLPROPANE.gamout	Energy:    -617.8276410
Cl        -1.78340       -0.03079       -0.07154
C         -0.15457       -0.72384        0.34864
C          1.00516        0.02971       -0.31490
C          1.09575        1.48987        0.15379
C          2.31684       -0.73558       -0.05565
H         -0.07699       -0.69202        1.45532
H         -0.18205       -1.78429        0.02817
H          0.80742        0.02281       -1.41132
H          0.15157        2.03277       -0.05183
H          1.29010        1.54369        1.24746
H          1.92138        2.02290       -0.36141
H          2.26823       -1.78176       -0.42435
H          3.16804       -0.23848       -0.56524
H          2.55553       -0.76900        1.02986
