16
1-CHLORO-2,4-DINITROBENZENE.gamout	Energy:   -1100.3097655
C          6.38344        1.89912       -0.68978
C          6.91390        0.65320       -0.33934
C          4.98679        2.10203       -0.74419
C          6.03375       -0.40465       -0.06285
C          4.64723       -0.24529       -0.12791
N          6.58700       -1.73813        0.30201
C          4.12575        1.01459       -0.45195
N          2.64006        1.13370       -0.46261
Cl         4.41158        3.66099       -1.23084
O          2.15523        2.19998       -0.09256
O          2.01511        0.13330       -0.81808
O          5.77898       -2.63584        0.54281
O          7.81431       -1.84515        0.33565
H          7.04608        2.74275       -0.93125
H          7.99765        0.48090       -0.28263
H          3.97503       -1.09091        0.07166
