26
1-CHLOROOCTANE.gamout	Energy:    -774.9575147
C         51.97448        0.00834       -0.00011
C         53.33199        0.72706        0.00005
C         54.54197       -0.22114       -0.00014
C         50.77046        0.96318        0.00009
C         55.89036        0.51955        0.00007
C         49.40678        0.25470       -0.00008
C         57.08295       -0.43213       -0.00015
C         48.21530        1.22037        0.00014
Cl        58.66193        0.46721        0.00015
H         51.91135       -0.66226       -0.88862
H         51.91133       -0.66263        0.88812
H         53.39453        1.39710        0.88853
H         53.39457        1.39748       -0.88815
H         54.48361       -0.89066       -0.88943
H         54.48357       -0.89106        0.88886
H         50.83570        1.63392        0.88850
H         50.83573        1.63433       -0.88800
H         55.96118        1.18164        0.89096
H         55.96124        1.18211       -0.89046
H         49.34254       -0.41533       -0.88792
H         49.34251       -0.41574        0.88746
H         57.09167       -1.08135       -0.89904
H         57.09163       -1.08182        0.89840
H         47.24586        0.67986       -0.00001
H         48.22775        1.87978        0.89475
H         48.22780        1.88021       -0.89414
