33
1-DECANETHIOL.gamout	Energy:    -792.1310180
S          6.60633       -0.71715        0.27159
C         -0.07992        0.37492        0.11938
C         -1.38248       -0.43961        0.10975
C          1.19157       -0.48494        0.18215
C         -2.65465        0.41702        0.02311
C          2.49555        0.32765        0.16405
C         -3.95580       -0.39900       -0.01142
C          3.76356       -0.54192        0.20638
C         -5.22817        0.45564       -0.11802
C          5.05730        0.27717        0.15903
C         -6.52125       -0.36771       -0.16662
H         -0.09163        1.08486        0.97890
H         -0.04349        1.01408       -0.79350
H         -1.42709       -1.07867        1.02207
H         -1.36109       -1.14937       -0.74997
H          1.16496       -1.12159        1.09656
H          1.19393       -1.19604       -0.67656
H         -2.60195        1.05784       -0.88785
H         -2.68443        1.12585        0.88321
H          2.51534        0.96423       -0.75104
H          2.50264        1.03852        1.02269
H         -4.01616       -1.03921        0.89951
H         -3.91885       -1.10866       -0.87091
H          3.75204       -1.25308       -0.65132
H          3.76728       -1.17262        1.12285
H         -5.26927        1.16331        0.74153
H         -5.16137        1.09581       -1.02747
H          5.12015        0.96951        1.02620
H          5.09907        0.91212       -0.75186
H         -6.64301       -0.98893        0.74669
H         -7.41829        0.28074       -0.24944
H         -6.52994       -1.05797       -1.03773
H          6.43134       -1.39655       -0.89818
