30
1-DECENE.gamout	Energy:    -392.7927687
C          5.62496       -0.21001       -0.57867
C          4.58598       -0.27677        0.27418
C          3.31825        0.53238        0.18534
C          2.03725       -0.32751        0.16317
C          0.74341        0.49726        0.09831
C         -0.53651       -0.35237        0.07516
C         -1.83101        0.47238        0.01123
C         -3.11205       -0.37518       -0.01471
C         -4.40660        0.45027       -0.08137
C         -5.68113       -0.40204       -0.11037
H          6.52228       -0.83648       -0.44719
H          5.61959        0.47695       -1.44326
H          4.64152       -0.98657        1.12331
H          3.26465        1.22067        1.06281
H          3.35054        1.18621       -0.71463
H          2.08374       -1.02379       -0.70473
H          2.01586       -0.97716        1.06864
H          0.70741        1.19363        0.96834
H          0.76754        1.15002       -0.80507
H         -0.49912       -1.04802       -0.79515
H         -0.56090       -1.00629        0.97779
H         -1.86794        1.16791        0.88185
H         -1.80545        1.12649       -0.89130
H         -3.07476       -1.07046       -0.88571
H         -3.13960       -1.03017        0.88735
H         -4.44250        1.14527        0.78869
H         -4.37514        1.10419       -0.98289
H         -6.59489        0.22608       -0.16109
H         -5.69524       -1.08051       -0.99059
H         -5.76473       -1.03927        0.79621
