34
1-DODECYNE.gamout	Energy:    -470.1056246
C          7.04637        2.21966        5.29669
C          6.17915        1.28673        4.43300
C          4.69799        1.21746        4.85153
C          8.54493        2.22699        4.94075
C          3.89653        2.51329        4.64410
C          8.87992        2.82244        3.56486
C          2.41016        2.38161        5.01050
C         10.40242        2.85911        3.29196
C          1.59557        3.66759        4.80037
C         10.76009        3.41550        1.98598
C          0.11381        3.52419        5.16962
C         11.04082        3.88339        0.89034
H          6.65756        3.26140        5.23816
H          6.93824        1.91679        6.36292
H          6.23716        1.59277        3.36377
H          6.61079        0.26100        4.47739
H          4.63523        0.91328        5.92243
H          4.20321        0.39935        4.28061
H          9.09462        2.79985        5.72176
H          8.94239        1.18671        4.99713
H          3.98671        2.83389        3.58007
H          4.34352        3.33808        5.24413
H          8.38919        2.24001        2.75580
H          8.47340        3.85526        3.49096
H          1.95440        1.55702        4.41403
H          2.32274        2.06023        6.07450
H         10.90810        3.44937        4.09060
H         10.81723        1.82813        3.37326
H          1.68481        3.98769        3.73718
H          2.05057        4.49037        5.39793
H         -0.01179        3.24417        6.23758
H         -0.44490        4.46874        5.00445
H         -0.38067        2.73495        4.56336
H         11.29317        4.29615       -0.07637
