36
1-DODECENE.gamout	Energy:    -471.3585269
C          7.94221        3.93719        1.66909
C          8.79608        2.75146        1.19385
C         10.28465        2.86848        1.55443
C         11.13064        1.67109        1.07258
C         12.59543        1.79833        1.40119
C         13.31051        0.93715        2.14861
C          6.45512        3.81574        1.30294
C          5.59216        4.99483        1.77820
C          4.10840        4.86962        1.39945
C          3.23724        6.04293        1.87315
C          1.75554        5.91494        1.48482
C          0.88868        7.08844        1.95853
H          8.35153        4.88094        1.23954
H          8.04171        4.04394        2.77422
H          8.69267        2.64370        0.08891
H          8.38689        1.80796        1.62400
H         10.39558        2.97201        2.65759
H         10.69601        3.80899        1.12050
H         11.01330        1.58099       -0.03383
H         10.73092        0.72676        1.50465
H         13.10177        2.69602        0.99445
H         14.38134        1.09903        2.35295
H         12.84999        0.03186        2.58203
H          6.04930        2.86835        1.72794
H          6.35600        3.71156        0.19733
H          6.00089        5.94268        1.35711
H          5.68215        5.09613        2.88473
H          3.70282        3.91883        1.81715
H          4.01920        4.76995        0.29259
H          3.64427        6.99470        1.45870
H          3.31883        6.14077        2.98084
H          1.35155        4.96304        1.89936
H          1.67594        5.81569        0.37807
H          1.24322        8.05209        1.53361
H          0.90988        7.18838        3.06505
H         -0.17195        6.96176        1.65658
