63
1-EICOSANOL.gamout	Energy:    -862.0081310
C          9.52861        0.52971       -0.00251
C          8.24984       -0.32193       -0.00291
C          8.50502       -1.83711       -0.00246
C          9.27022        2.04432       -0.00269
C          7.22143       -2.68158       -0.00246
C         10.55016        2.89442       -0.00186
C          7.46318       -4.19892       -0.00180
C         10.29816        4.41001       -0.00177
C          6.16944       -5.02818       -0.00144
C         11.58398        5.25167       -0.00055
C          6.38991       -6.54864       -0.00059
C         11.34452        6.76913       -0.00027
C          5.08299       -7.35713        0.00005
C         12.63816        7.59927        0.00130
C          5.28024       -8.88082        0.00107
C         12.41249        9.11853        0.00171
C          3.95898       -9.66283        0.00188
C         13.71285        9.93966        0.00349
C          4.13660      -11.17950        0.00297
C         13.48587       11.45617        0.00397
O          2.84889      -11.78006        0.00375
H         10.14842        0.26205        0.88467
H         10.14929        0.26192       -0.88903
H          7.63051       -0.05389       -0.89026
H          7.62995       -0.05356        0.88397
H          9.12381       -2.10696        0.88472
H          9.12436       -2.10748       -0.88911
H          8.65115        2.31240       -0.89019
H          8.65022        2.31238        0.88418
H          6.60384       -2.40912       -0.88964
H          6.60361       -2.40846        0.88437
H         11.16902        2.62463        0.88531
H         11.17023        2.62488       -0.88826
H          8.07902       -4.47524        0.88537
H          8.07922       -4.47606       -0.88858
H          9.68100        4.68201       -0.88934
H          9.67974        4.68161        0.88506
H          5.55541       -4.74760       -0.88846
H          5.55546       -4.74664        0.88531
H         12.20043        4.97668        0.88665
H         12.20196        4.97719       -0.88684
H          7.00138       -6.83425        0.88661
H          7.00129       -6.83532       -0.88750
H         10.73012        7.04695       -0.88790
H         10.72851        7.04630        0.88646
H          4.47345       -7.06769       -0.88682
H          4.47369       -7.06650        0.88670
H         13.25157        7.31807        0.88862
H         13.25340        7.31879       -0.88501
H          5.88778       -9.17334        0.88872
H          5.88746       -9.17459       -0.88638
H         11.80062        9.40245       -0.88595
H         11.79878        9.40164        0.88838
H          3.35000       -9.38394       -0.88692
H          3.35036       -9.38262        0.89052
H         14.32183        9.65137        0.89056
H         14.32381        9.65224       -0.88250
H          4.73901      -11.47933        0.89950
H          4.73857      -11.48065       -0.89342
H         14.44478       12.01564        0.00535
H         12.91234       11.78084       -0.89064
H         12.91031       11.77996        0.89760
H          2.97212      -12.74664        0.00441
