22
1-ETHYL-3-ETHENYLBENZENE.gamout	Energy:    -387.9865223
C          6.53936        2.60954        1.54221
C          5.20959        2.66813        0.76425
C          4.01199        2.96729        1.64791
C          3.29898        1.92629        2.27692
C          3.60341        4.29526        1.89327
C          2.20238        2.17030        3.13849
C          2.51550        4.56337        2.74485
C          1.50993        1.02221        3.75429
C          1.82025        3.51676        3.36284
C          0.47547        1.05116        4.62368
H          6.51490        1.82028        2.32237
H          6.74764        3.57315        2.05252
H          7.39064        2.39181        0.86350
H          5.28188        3.44476       -0.02771
H          5.04793        1.70031        0.24137
H          3.60090        0.88083        2.09022
H          4.13873        5.12840        1.40789
H          2.20408        5.60541        2.92216
H          1.90590        0.03442        3.45419
H          0.96703        3.74464        4.02043
H          0.02329        1.99197        4.97814
H          0.04130        0.11874        5.01659
