21
1-ETHOXYBUTANE.gamout	Energy:    -312.0457649
O         -1.23363       -0.26073        0.00054
C          1.16347       -0.33465        0.00086
C          2.48115        0.45315        0.00704
C         -0.07743        0.55533        0.00620
C          3.72514       -0.44459        0.00119
C         -2.44685        0.47101        0.00412
C         -3.61253       -0.50886       -0.00245
H          1.11407       -0.99550       -0.89321
H          1.11304       -1.00735        0.88599
H          2.50913        1.11892        0.89979
H          2.51021        1.13129       -0.87634
H         -0.07086        1.22485        0.90711
H         -0.07038        1.23639       -0.88600
H          3.74783       -1.10945        0.89106
H          3.74860       -1.09638       -0.89825
H          4.66079        0.15224        0.00601
H         -2.50002        1.13743        0.90442
H         -2.49878        1.14785       -0.88844
H         -4.58088        0.03176        0.00020
H         -3.57226       -1.15467       -0.90334
H         -3.57335       -1.16517        0.89087
