20
1-FLUOROHEXANE.gamout	Energy:    -336.0487202
C         68.99072       10.02673        0.00011
C         67.69145        9.20525       -0.00011
C         67.92534        7.68751        0.00009
C         68.76472       11.54644       -0.00011
C         66.63177        6.88189       -0.00012
C         70.06380       12.36125        0.00012
F         66.90649        5.51707        0.00012
H         69.60249        9.74390        0.88780
H         69.60292        9.74372       -0.88724
H         67.08080        9.48909       -0.88840
H         67.08038        9.48927        0.88783
H         68.52357        7.39198        0.89058
H         68.52397        7.39182       -0.89006
H         68.15104       11.82431       -0.88738
H         68.15061       11.82449        0.88682
H         66.01718        7.11646       -0.90081
H         66.01676        7.11668        0.90022
H         69.86371       13.45295       -0.00003
H         70.68455       12.13738        0.89437
H         70.68498       12.13721       -0.89379
