18
1-FLUORONAPHTHALENE.gamout	Energy:    -484.7724907
C          5.80576        1.76050       -0.56634
F          5.84735        2.35694       -1.77869
C          4.60422        1.08344       -0.19637
C          6.91237        1.82402        0.26453
C          4.56602        0.44751        1.10133
C          3.46479        1.01840       -1.05273
C          6.85720        1.19263        1.53842
C          5.71398        0.52003        1.95009
C          3.36898       -0.23349        1.48288
C          2.32021        0.34630       -0.64371
C          2.27216       -0.28356        0.63199
H          7.81184        2.35966       -0.07334
H          3.51328        1.50866       -2.03605
H          7.73748        1.24373        2.19826
H          5.67605        0.03293        2.93720
H          3.33085       -0.72129        2.47041
H          1.44324        0.29895       -1.30851
H          1.35785       -0.81329        0.94336
