11
1-FLUOROPROPANE.gamout	Energy:    -218.2003541
C         34.99986       10.02671        0.00010
C         33.68972        9.24622       -0.00011
C         33.90350        7.72827        0.00010
F         34.75254       11.39569       -0.00010
H         35.60830        9.77901        0.90184
H         35.60870        9.77883       -0.90133
H         33.10004        9.55509       -0.89097
H         33.09962        9.55529        0.89041
H         32.93556        7.18691       -0.00008
H         34.46928        7.39232        0.89541
H         34.46969        7.39215       -0.89488
