8
1-FLUORO-1,2,2-TRICHLOROETHANE.gamout	Energy:   -1557.4039755
C         17.97963       20.02744       -0.01444
C         19.28849       20.83425       -0.02906
Cl        16.54125       21.08582       -0.06360
Cl        18.00532       18.86582       -1.39811
F         19.33910       21.68302       -1.08422
Cl        19.45138       21.75794        1.51634
H         17.92565       19.42544        0.91134
H         20.14968       20.13350       -0.07359
