54
1-HEPTADECANOL.gamout	Energy:    -744.1600113
C          7.74140        0.57915        0.00079
C          6.43422       -0.22936        0.00050
C          6.64670       -1.75098        0.00071
C          7.54067        2.10235        0.00053
C          5.34397       -2.56657        0.00030
C          8.85592        2.89784        0.00065
C          5.56125       -4.08746        0.00046
C          8.67287        4.42321        0.00031
C          4.25948       -4.90470       -0.00005
C          9.99835        5.20130        0.00027
C          4.47671       -6.42549        0.00007
C          9.83381        6.72888       -0.00015
C          3.17484       -7.24249       -0.00053
C         11.17030        7.48483       -0.00029
C          3.39190       -8.76378       -0.00046
C         11.01916        9.00430       -0.00077
C          2.08888       -9.57303       -0.00112
O         12.31637        9.58386       -0.00088
H          8.35062        0.28871        0.88793
H          8.35107        0.28849       -0.88598
H          5.82412        0.05862       -0.88686
H          5.82353        0.05880        0.88739
H          7.25770       -2.03730        0.88801
H          7.25828       -2.03744       -0.88614
H          6.93331        2.39581       -0.88687
H          6.93291        2.39608        0.88756
H          4.73255       -2.28115       -0.88700
H          4.73185       -2.28104        0.88710
H          9.46203        2.60068        0.88764
H          9.46233        2.60033       -0.88602
H          6.17271       -4.37248        0.88786
H          6.17339       -4.37255       -0.88645
H          8.06930        4.72408       -0.88718
H          8.06907        4.72446        0.88751
H          3.64799       -4.61939       -0.88735
H          3.64721       -4.61935        0.88670
H         10.60077        4.89737        0.88713
H         10.60095        4.89690       -0.88631
H          5.08802       -6.71068        0.88757
H          5.08881       -6.71069       -0.88688
H          9.23326        7.03442       -0.88815
H          9.23313        7.03491        0.88759
H          2.56308       -6.95743       -0.88794
H          2.56224       -6.95745        0.88631
H         11.77335        7.19386        0.88865
H         11.77345        7.19332       -0.88899
H          4.00443       -9.04516        0.88647
H          4.00527       -9.04511       -0.88682
H         10.42205        9.31414       -0.89754
H         10.42196        9.31469        0.89575
H          2.28342      -10.66582       -0.00109
H          1.46980       -9.34501       -0.89551
H          1.46891       -9.34513        0.89268
H         12.20838       10.55217       -0.00114
