21
1-HEXANOL.gamout	Energy:    -312.0495269
C          4.95889        2.12079        0.80720
C          3.64779        1.61711        1.43140
C          2.40976        1.89184        0.56691
C          6.20274        1.86133        1.67205
C          1.10818        1.38826        1.18636
C          7.50499        2.37117        1.04153
O          0.03762        1.70789        0.30721
H          5.09688        1.64259       -0.19002
H          4.87233        3.21366        0.60609
H          3.73263        0.52291        1.62685
H          3.51548        2.09242        2.43096
H          2.30491        2.98420        0.38171
H          2.52431        1.42011       -0.43446
H          6.06037        2.33849        2.66851
H          6.28753        0.76874        1.87210
H          1.18614        0.28443        1.36509
H          0.97469        1.86064        2.19410
H          7.69459        1.88595        0.06010
H          7.46685        3.46755        0.86478
H          8.38295        2.16817        1.68951
H         -0.78625        1.38294        0.71353
