19
1-HEPTYNE.gamout	Energy:    -273.6940373
C          5.88921        1.73308        0.90750
C          4.47501        1.13671        0.90721
C          3.36574        2.21510        0.90979
C          7.00436        0.67503        0.89305
C          2.00783        1.66795        0.90733
C          8.41686        1.27298        0.90311
C          0.88086        1.19099        0.90541
H          6.00847        2.40534        0.02618
H          6.01537        2.38734        1.80144
H          4.33859        0.48118        0.01891
H          4.33896        0.47905        1.79396
H          3.49296        2.87455        1.79902
H          3.49372        2.87942        0.02432
H          6.87624        0.00128        1.77054
H          6.87847        0.02541       -0.00285
H          8.58631        1.89534        1.80794
H          9.19601        0.48311        0.89097
H          8.58728        1.92429        0.01918
H         -0.11562        0.77163        0.90330
