24
1-HEPTANETHIOL.gamout	Energy:    -674.2812096
C         -0.04470       -0.12750        0.00015
C          1.28449        0.63798       -0.00010
C          1.11582        2.16558        0.00008
C          2.44328        2.94025       -0.00014
C          2.27061        4.46693        0.00007
C          3.60218        5.23728       -0.00015
C          3.41023        6.75769        0.00010
S          5.06088        7.59194       -0.00026
H          0.11334       -1.22601        0.00004
H         -0.65548        0.12175        0.89444
H         -0.65591        0.12187       -0.89383
H          1.88770        0.33733       -0.88700
H          1.88810        0.33718        0.88648
H          0.51379        2.47021        0.88759
H          0.51338        2.47037       -0.88710
H          3.04528        2.63715       -0.88768
H          3.04567        2.63695        0.88705
H          1.67036        4.77115        0.88836
H          1.66994        4.77136       -0.88786
H          4.20317        4.94292       -0.88991
H          4.20359        4.94269        0.88925
H          2.83934        7.07552        0.89820
H          2.83881        7.07575       -0.89759
H          4.58949        8.87181        0.00013
