31
1-HEXYL-2-PYRROLIDONE.gamout	Energy:    -522.1227543
O          1.98186       -0.15389        1.99497
N          1.56012       -0.45413       -0.27174
C          2.04891        0.03687       -1.55522
C          0.74708       -1.65254       -0.13463
C          2.69622        1.39494       -1.19409
C         -0.71439       -1.49395       -0.59252
C          3.12312        1.21908        0.27217
C         -1.50122       -0.42061        0.17263
C          2.16535        0.15015        0.82153
C         -2.97449       -0.31691       -0.25017
C         -3.76356        0.76831        0.49916
C         -5.23522        0.86143        0.07710
H          1.22581        0.14528       -2.29441
H          2.79049       -0.67544       -1.99638
H          1.22759       -2.48823       -0.69629
H          0.78375       -1.90874        0.94607
H          1.93431        2.19892       -1.27226
H          3.52637        1.65824       -1.87904
H         -1.20908       -2.48356       -0.46765
H         -0.75142       -1.28096       -1.68608
H          3.07385        2.13902        0.88706
H          4.15828        0.82143        0.36736
H         -1.43982       -0.63046        1.26465
H         -1.00464        0.56613        0.03324
H         -3.47186       -1.30301       -0.09680
H         -3.03202       -0.12193       -1.34687
H         -3.70118        0.57432        1.59417
H         -3.26807        1.75359        0.34313
H         -5.33232        1.09024       -1.00614
H         -5.77147       -0.09435        0.26108
H         -5.77283        1.65653        0.63452
