18
1-HEXENE.gamout	Energy:    -235.6614293
H         -2.36356       -0.97070        0.00000
H         -2.59849       -2.83206       -0.00000
C         -1.90718       -1.97418       -0.00000
H         -0.18870       -3.19564       -0.00000
C         -0.57328       -2.15743       -0.00000
H          1.15850       -1.26160        0.87975
H          1.15850       -1.26160       -0.87975
C          0.49235       -1.08932        0.00000
H         -0.64236        0.53717       -0.88829
H         -0.64236        0.53717        0.88829
C          0.00788        0.36482        0.00000
H          1.80037        1.22156        0.88687
H          1.80037        1.22156       -0.88687
C          1.14820        1.39439       -0.00000
H          0.03387        3.06358       -0.89409
H          0.03387        3.06358        0.89409
H          1.50035        3.56869       -0.00000
C          0.65760        2.84687       -0.00000
