16
1-HEXYNE.gamout	Energy:    -234.4110872
C          4.67088        1.92838        1.05469
C          3.40635        1.04427        0.94870
C          2.10408        1.84892        1.06804
C          5.92911        1.18643        0.95720
C          0.84194        0.98352        0.96746
C          6.97767        0.55928        0.88898
H          4.64519        2.71172        0.26223
H          4.65348        2.48209        2.02178
H          3.42830        0.49499       -0.01856
H          3.44342        0.26439        1.74160
H          2.10322        2.39870        2.03697
H          2.08493        2.63535        0.27893
H         -0.07996        1.59422        1.05784
H          0.79517        0.44761       -0.00448
H          0.81342        0.21455        1.76901
H          7.90447        0.00604        0.82732
