48
1-HEXADECENE.gamout	Energy:    -628.4837806
C          6.85291        5.63354        7.19137
C          5.52995        6.34575        7.52645
C          4.26351        5.68388        6.95682
C          7.24893        5.65594        5.70533
C          2.96988        6.40384        7.37206
C          8.60400        4.99183        5.41901
C          1.65967        5.88558        6.74774
C          9.01836        5.02345        3.93981
C          1.22902        4.44785        7.12229
C         10.37191        4.35409        3.66117
C          1.73391        3.33668        6.18566
C         10.79197        4.39334        2.17636
C          1.26632        1.92857        6.58335
C         12.14183        3.77601        1.92009
C          1.75378        0.82707        5.63451
C         12.38566        2.72150        1.11964
H          7.67137        6.10061        7.78475
H          6.80188        4.57536        7.53934
H          5.42894        6.41465        8.63340
H          5.58025        7.40087        7.16871
H          4.23390        4.62061        7.28752
H          4.31878        5.65209        5.84499
H          7.27344        6.71273        5.35003
H          6.46313        5.15587        5.09492
H          3.07359        7.48241        7.11201
H          2.87962        6.37772        8.48314
H          8.57895        3.93391        5.76960
H          9.39277        5.48628        6.03255
H          0.84987        6.58718        7.04537
H          1.72340        5.96929        5.63772
H          9.04983        6.08118        3.58871
H          8.22913        4.53125        3.32539
H          0.11684        4.40151        7.14152
H          1.54507        4.22324        8.16813
H         10.34350        3.29385        4.00056
H         11.16012        4.84293        4.27921
H          2.84561        3.35432        6.13505
H          1.39019        3.55576        5.14756
H         10.02136        3.88911        1.55165
H         10.80946        5.45897        1.84495
H          0.15308        1.91526        6.63197
H          1.60772        1.70545        7.62038
H         12.99145        4.23961        2.45937
H          1.39818        1.00028        4.59581
H          2.86382        0.78662        5.59730
H          1.39451       -0.17562        5.94632
H         13.40345        2.31987        0.98684
H         11.57436        2.22171        0.56153
