21
1-HEPTENE.gamout	Energy:    -274.9445291
C          3.32257        0.74110        1.43088
C          4.56422        1.59690        1.72261
C          5.83758        0.76864        1.99170
C          2.04841        1.55979        1.17029
C          7.04181        1.60871        2.32919
C          0.80983        0.69825        0.89378
C          8.21235        1.61046        1.66483
H          3.14527        0.04775        2.28605
H          3.52306        0.08344        0.55309
H          4.36073        2.25252        2.60084
H          4.75095        2.28890        0.87037
H          6.06273        0.12279        1.11379
H          5.63210        0.07558        2.84243
H          2.22406        2.24813        0.31226
H          1.85533        2.22102        2.04600
H          6.92482        2.28695        3.19746
H         -0.09121        1.32086        0.71438
H          0.58569        0.02637        1.75006
H          0.95452        0.05450       -0.00029
H          8.38001        0.95831        0.78958
H          9.05016        2.25752        1.97167
