22
1-HEPTANAL.gamout	Energy:    -350.1282630
C          3.60261        1.53673        3.14706
C          2.63168        2.67851        2.80831
C          2.07428        2.60949        1.37864
C          4.15765        1.60901        4.58517
C          1.10673        3.75278        1.03230
C          5.14417        0.49537        4.87377
C          0.55419        3.67834       -0.39623
O          5.03008       -0.34045        5.74881
H          4.44821        1.54668        2.42164
H          3.09143        0.55796        3.00326
H          3.14939        3.65462        2.95729
H          1.78905        2.67248        3.53680
H          1.55745        1.63240        1.23221
H          2.91891        2.61130        0.65121
H          3.34665        1.56886        5.34213
H          4.70227        2.57447        4.71586
H          0.26525        3.75038        1.76193
H          1.62719        4.72661        1.18161
H          6.03865        0.48041        4.17091
H         -0.00480        2.73276       -0.56485
H         -0.13822        4.51810       -0.61248
H          1.37027        3.71601       -1.14926
