14
1-IODOBUTANE.gamout	Energy:    -455.5619349
C          0.87440        0.02389       -0.00012
C          2.23533        0.74785        0.00009
C          3.40919       -0.22515       -0.00011
C         -0.31392        0.99542        0.00013
I          5.34632        0.80994        0.00020
H          0.81070       -0.64363       -0.88877
H          0.81072       -0.64408        0.88819
H          2.30642        1.41033        0.89010
H          2.30643        1.41080       -0.88958
H          3.44137       -0.86388       -0.90331
H          3.44133       -0.86425        0.90282
H         -1.28008        0.45090        0.00002
H         -0.30054        1.65248        0.89558
H         -0.30061        1.65294       -0.89498
