20
1-IODOHEXANE.gamout	Energy:    -534.1275725
C         -0.05435       -0.08085        0.00005
C          1.30412        0.63246       -0.00017
C          1.18886        2.16593        0.00016
C          2.54281        2.89805       -0.00004
C          2.40261        4.43595        0.00020
C          3.75769        5.13341       -0.00007
I          3.57198        7.32184        0.00019
H          0.06391       -1.18375       -0.00022
H         -0.65405        0.19136        0.89478
H         -0.65455        0.19177       -0.89422
H          1.89434        0.30879       -0.88753
H          1.89485        0.30845        0.88673
H          0.59806        2.48964        0.88792
H          0.59767        2.49001       -0.88722
H          3.13416        2.57959       -0.88887
H          3.13463        2.57940        0.88841
H          1.81837        4.75593        0.89059
H          1.81797        4.75620       -0.88984
H          4.35693        4.91244       -0.90337
H          4.35744        4.91234        0.90285
