17
1-IODOPENTANE.gamout	Energy:    -494.8447413
C         59.04959       33.99575       -0.00012
C         58.27882       32.66345        0.00009
C         60.57328       33.82299        0.00012
C         56.74695       32.84914       -0.00012
C         56.01119       31.51466        0.00009
I         53.82773       31.74854       -0.00010
H         58.74036       34.59311       -0.88742
H         58.74007       34.59353        0.88678
H         58.58141       32.06365        0.88886
H         58.58160       32.06325       -0.88834
H         61.09062       34.80413       -0.00006
H         60.92021       33.26382        0.89520
H         60.92046       33.26338       -0.89459
H         56.44439       33.44334       -0.89005
H         56.44416       33.44369        0.88950
H         56.21665       30.90918        0.90292
H         56.21668       30.90879       -0.90246
