16
1-METHYLCYCLOPENTENE.gamout	Energy:    -234.4673760
C          0.96133        1.58819        0.90907
C          1.94666        1.90904        1.99382
C          2.16385        3.33223        2.48805
C          2.78026        1.05256        2.62891
C          3.02964        3.15544        3.76401
C          3.67619        1.74709        3.63068
H          1.18761        2.15612       -0.02166
H          0.95674        0.50842        0.65787
H         -0.07273        1.87784        1.20278
H          2.68653        3.93134        1.70330
H          1.20630        3.86476        2.68481
H          2.83957       -0.02745        2.41449
H          3.77695        3.96448        3.89534
H          2.37318        3.17393        4.65989
H          3.74013        1.21142        4.60375
H          4.72396        1.80512        3.24782
