27
1-METHYL-1-ISOPROPYLCYCLOPENTANE.gamout	Energy:    -353.5286833
C         -0.69171       -0.80550       -0.44119
C          0.86378       -0.74279       -0.44722
C          1.24543        0.27964        0.65090
C          0.01903        1.23802        0.77267
C         -1.04873        0.69292       -0.21324
C         -1.30128       -1.41750       -1.75220
C         -2.83868       -1.30203       -1.80193
C         -0.70917       -0.86120       -3.06217
C         -1.14993       -1.64587        0.77552
H          1.21641       -0.37109       -1.43114
H          1.32722       -1.74142       -0.29399
H          2.17847        0.82187        0.39248
H          1.44430       -0.23020        1.61685
H          0.28644        2.28877        0.53635
H         -0.37029        1.24774        1.81215
H         -2.08403        0.83050        0.16259
H         -0.98441        1.24057       -1.17921
H         -1.05382       -2.50562       -1.72292
H         -3.16286       -0.24222       -1.88553
H         -3.33075       -1.73344       -0.90698
H         -3.24435       -1.83721       -2.68636
H         -0.83465        0.24090       -3.13888
H         -1.22826       -1.30579       -3.93733
H          0.36975       -1.08622       -3.17854
H         -0.68575       -1.29313        1.71934
H         -0.86728       -2.71287        0.64631
H         -2.24858       -1.60288        0.92151
