24
1-METHYL-2-PROPYLBENZENE.gamout	Energy:    -389.2129561
C          1.73960        4.41546        2.13116
C          0.80149        5.60975        1.92446
C          2.91826        4.38545        1.13165
C          3.85401        3.20565        1.32515
C          3.60194        2.00279        0.63075
C          4.41059        0.86745        0.79988
C          5.50188        0.92473        1.68108
C          5.76711        2.11561        2.37700
C          4.96195        3.26418        2.21853
C          5.29544        4.52901        2.98025
H          1.16922        3.46414        2.04204
H          2.13960        4.42370        3.16961
H          1.33997        6.57496        2.04184
H         -0.03532        5.60492        2.65334
H          0.35689        5.60535        0.90594
H          3.48152        5.34134        1.20846
H          2.50757        4.35857        0.09792
H          2.74701        1.96280       -0.06577
H          4.19005       -0.05641        0.24168
H          6.15028        0.04603        1.82698
H          6.62834        2.16049        3.06482
H          6.16591        4.37756        3.64912
H          4.44770        4.87732        3.60772
H          5.54674        5.36915        2.29574
