18
1-METHYL-1-ETHYLCYCLOPROPANE.gamout	Energy:    -235.6586748
C          2.63705       -1.32813        1.70452
C          1.75285       -0.27541        1.01814
C          1.17927        0.78810        1.95874
C          0.21426        0.27121        3.01862
C          2.07374        1.96282        2.32260
C          0.90587        2.16333        1.37303
H          3.05760       -2.04288        0.96694
H          3.48846       -0.85224        2.23582
H          2.06841       -1.92197        2.45025
H          0.90978       -0.78229        0.49360
H          2.34245        0.23458        0.22448
H          0.70469       -0.44534        3.71186
H         -0.19141        1.09944        3.63616
H         -0.64909       -0.24978        2.54972
H          1.99779        2.38477        3.33854
H          3.09306        1.99342        1.90176
H          1.12729        2.33094        0.30548
H          0.02761        2.72165        1.73874
