15
1-METHOXYPROPANE.gamout	Energy:    -233.4750394
O          1.20947       -0.46023        0.00506
C         -1.18953       -0.51010        0.00351
C          0.06091        0.36670        0.00157
C         -2.49031        0.29984       -0.00060
C          2.41544        0.26751        0.00389
H         -1.14243       -1.17893       -0.88358
H         -1.14416       -1.17294        0.89517
H          0.06124        1.03881       -0.89798
H          0.06007        1.04479        0.89661
H         -2.56522        0.94994       -0.89857
H         -3.37732       -0.36623        0.00082
H         -2.56706        0.95624        0.89262
H          2.51689        0.91940       -0.90049
H          3.25066       -0.46162        0.00630
H          2.51574        0.92414        0.90496
