22
1-METHYLINDANE.gamout	Energy:    -388.0099096
C          0.83436        3.13865        1.42520
C          2.12226        2.35544        1.10960
C          3.38092        3.00417        1.66940
C          2.13771        0.90957        1.71638
C          4.10231        2.12126        2.50032
C          3.85409        4.30941        1.44389
C          3.42134        0.76958        2.58983
C          5.29573        2.54025        3.11525
C          5.04819        4.72809        2.05813
C          5.76528        3.84738        2.89191
H          0.68574        3.22921        2.52239
H         -0.05586        2.62980        0.99871
H          0.86587        4.16537        1.00431
H          2.21406        2.29645        0.00002
H          2.11425        0.14535        0.91331
H          1.22468        0.74362        2.32588
H          3.29657        5.00331        0.79302
H          4.08927       -0.03946        2.22014
H          3.18493        0.50729        3.64464
H          5.86130        1.85278        3.76589
H          5.42588        5.74902        1.88703
H          6.69962        4.18460        3.36892
