30
1-METHYL-4-ISOPROPYLCYCLOHEXANE.gamout	Energy:    -392.8267284
C          2.96000        0.95111        5.15617
C          3.14957        1.69872        3.82564
C          2.08543        1.73047        6.15766
C          1.81434        2.08257        3.14756
C          0.92967        2.84615        4.16048
C          2.02217        2.86923        1.81904
C          0.74584        2.09438        5.49005
C          1.89157        0.96385        7.47292
C          0.69232        3.25943        1.14642
C          2.90155        2.10115        0.81364
H          3.95217        0.72914        5.60867
H          2.48002       -0.03791        4.96389
H          3.76604        1.07689        3.14361
H          3.73355        2.63181        4.01105
H          2.61311        2.68774        6.39054
H          1.28322        1.13201        2.88714
H         -0.06786        3.05620        3.72109
H          1.39776        3.83989        4.35871
H          2.55610        3.81493        2.08310
H          0.17338        1.15397        5.30704
H          0.12591        2.70298        6.18558
H          1.37001       -0.00371        7.30140
H          2.86464        0.73449        7.95716
H          1.28314        1.54422        8.19884
H          0.07439        2.36065        0.92557
H          0.08022        3.94238        1.76909
H          0.87666        3.77607        0.18084
H          2.45648        1.11068        0.57029
H          2.99808        2.66198       -0.13986
H          3.92889        1.92309        1.19007
