31
1-METHYLDECALIN.gamout	Energy:    -430.9158720
C          0.00033        0.50603       -0.19821
C          0.35700       -0.94686        0.22920
C         -1.42601        0.90852        0.27328
C          1.09832        1.48708        0.26747
C         -0.71300       -1.95198       -0.23191
C          1.76763       -1.34377       -0.24939
C         -2.46663       -0.13607       -0.18533
C         -2.11082       -1.55946        0.26395
C          2.49785        1.07453       -0.21604
C          2.84205       -0.35505        0.22707
C         -1.84085        2.31668       -0.18417
H         -0.01247        0.51991       -1.31803
H          0.36866       -0.95636        1.34797
H         -1.41440        0.89914        1.39108
H          1.09057        1.52817        1.38279
H          0.87246        2.51766       -0.07861
H         -0.44492       -2.97612        0.11032
H         -0.71436       -1.98979       -1.34696
H          1.77061       -1.38064       -1.36457
H          2.00660       -2.37602        0.09052
H         -2.53072       -0.10815       -1.29899
H         -3.47553        0.14957        0.18628
H         -2.87463       -2.28476       -0.09155
H         -2.13047       -1.60739        1.37720
H          3.26312        1.79463        0.14709
H          2.52541        1.12666       -1.32920
H          3.84585       -0.65374       -0.14598
H          2.90088       -0.38855        1.33975
H         -1.83588        2.38933       -1.29399
H         -2.86928        2.55703        0.15916
H         -1.16968        3.10667        0.20856
