19
1-METHYLCYCLOHEXENE.gamout	Energy:    -273.7568594
C          0.40016        2.13535        1.10139
C          1.90332        2.11011        1.23458
C          2.60217        3.45916        1.24338
C          2.60353        0.95421        1.33222
C          4.05859        3.38680        1.73377
C          4.10928        0.87355        1.43779
C          4.79844        2.20482        1.08852
H          0.08587        2.69663        0.19258
H         -0.02792        1.11446        1.03928
H         -0.07285        2.65486        1.96541
H          2.56075        3.89062        0.21352
H          2.02086        4.17345        1.87071
H          2.04909       -0.00254        1.33969
H          4.58141        4.34451        1.52490
H          4.06616        3.25869        2.84011
H          4.39124        0.55634        2.47135
H          4.48882        0.05865        0.78053
H          4.80525        2.33862       -0.01707
H          5.86254        2.18278        1.40794
