16
1-METHOXY-2-PROPANOL.gamout	Energy:    -308.6332187
O          3.21919       -0.73206        0.84837
O          0.42097       -0.81586        0.11439
C          1.01990        0.23791        0.86859
C          2.46346        0.36952        0.39075
C          0.24363        1.55275        0.70550
C          4.54931       -0.71560        0.38841
H          1.06611       -0.03170        1.95400
H          2.46310        0.42267       -0.72890
H          2.89579        1.33298        0.76778
H         -0.80412        1.42918        1.05171
H          0.69644        2.37877        1.29333
H          0.21037        1.85281       -0.36306
H         -0.42298       -1.03864        0.54802
H          5.06330       -1.60385        0.80750
H          5.10257        0.20117        0.71770
H          4.61457       -0.76305       -0.72804
