22
1-METHYLCYCLOHEXANOL.gamout	Energy:    -350.1445216
C         -3.84813        1.01198        1.11037
C         -5.09392        1.89692        1.29921
C         -4.08635       -0.08966        0.06314
C         -5.59790        2.51352       -0.03342
C         -5.81568        1.38996       -1.08076
C         -6.88273        3.31851        0.18458
O         -4.63808        3.46911       -0.52521
C         -4.57176        0.50355       -1.27147
H         -3.54671        0.56869        2.08373
H         -2.98576        1.64539        0.79194
H         -5.91162        1.28626        1.74521
H         -4.88333        2.72461        2.00967
H         -3.16209       -0.68759       -0.09172
H         -4.85634       -0.79719        0.44898
H         -6.66954        0.75618       -0.75020
H         -6.11291        1.86103       -2.04224
H         -7.69933        2.67712        0.57287
H         -6.69689        4.13688        0.90976
H         -7.21432        3.77528       -0.77039
H         -3.80224        2.98882       -0.67781
H         -4.78866       -0.30350       -2.00357
H         -3.75164        1.10676       -1.72976
