36
1-N-HEXYLNAPHTHALENE.gamout	Energy:    -621.3082483
C          5.19217        2.04882       -0.73729
C          6.08535        2.67753        0.12200
C          4.36318        0.96947       -0.29392
C          6.19737        2.25921        1.47641
C          5.41383        1.21250        1.94273
C          4.48687        0.54272        1.08599
C          3.68446       -0.53880        1.56192
C          3.42963        0.29099       -1.16136
C          2.67974       -0.76543       -0.64220
C          3.22115        0.72202       -2.60060
C          2.79919       -1.18226        0.71086
C          2.28023        1.93739       -2.76359
C          2.06813        2.35324       -4.22681
C          1.11725        3.54625       -4.40296
C          0.90093        3.96361       -5.86631
C         -0.05235        5.15267       -6.03286
H          5.12476        2.38702       -1.78223
H          6.71289        3.50417       -0.24793
H          6.90737        2.76397        2.15070
H          5.49730        0.87750        2.98982
H          3.78556       -0.85450        2.61317
H          1.97114       -1.29263       -1.30310
H          4.19728        0.94303       -3.08690
H          2.79273       -0.13269       -3.16787
H          2.18449       -2.02017        1.07690
H          1.29896        1.69294       -2.29785
H          2.67595        2.79977       -2.18178
H          3.05393        2.59446       -4.68877
H          1.67794        1.48273       -4.80398
H          0.13228        3.30229       -3.94099
H          1.50560        4.41730       -3.82544
H          1.88665        4.20637       -6.32551
H          0.51475        3.09074       -6.44090
H         -0.18753        5.42643       -7.09992
H         -1.05802        4.92644       -5.61741
H          0.32537        6.05341       -5.50284
