30
1-N-BUTYLNAPHTHALENE.gamout	Energy:    -542.7427182
C          2.78574        3.68174        3.46155
C          3.43423        5.05791        3.73929
C          3.76522        2.60838        3.02381
C          2.41976        6.13445        4.15670
C          4.63485        1.94546        3.96638
C          3.86214        2.27111        1.67297
C          3.05836        7.50140        4.43326
C          5.59162        0.96995        3.48387
C          4.59084        2.20024        5.37367
C          4.79274        1.30610        1.20074
C          5.64705        0.67060        2.08854
C          6.45809        0.32180        4.41765
C          5.44542        1.55020        6.25562
C          6.39347        0.60539        5.77479
H          2.02141        3.80306        2.66412
H          2.22941        3.35330        4.36808
H          3.97780        5.39191        2.82691
H          4.21123        4.95114        4.52850
H          1.86833        5.79049        5.06169
H          1.64994        6.23655        3.35820
H          3.19240        2.76693        0.95047
H          2.29900        8.25739        4.72249
H          3.59018        7.88948        3.53818
H          3.80092        7.44280        5.25762
H          3.86224        2.92463        5.76741
H          4.83034        1.06951        0.12542
H          6.37806       -0.07417        1.73379
H          7.18237       -0.41583        4.03446
H          5.38677        1.76472        7.33464
H          7.07005        0.09921        6.48147
