28
1-N-BUTYLCYCLOHEXENE.gamout	Energy:    -391.6027908
C          2.08200        2.71577        4.03198
C          3.43579        2.07343        3.65133
C          4.34540        2.97781        2.84335
C          1.19283        1.84931        4.94448
C          5.05105        4.09590        3.59457
C          4.53199        2.80223        1.51248
C          0.68595        0.54829        4.30657
C          5.63547        5.17592        2.66923
C          5.43197        3.65979        0.65303
C          6.38090        4.53735        1.48845
H          2.26900        3.68829        4.53976
H          1.52870        2.96219        3.09699
H          3.95934        1.77375        4.59113
H          3.25597        1.13616        3.08207
H          1.75208        1.61151        5.87878
H          0.31863        2.45940        5.26353
H          5.86088        3.64467        4.21855
H          4.35061        4.55627        4.32775
H          3.99510        1.97682        1.00874
H          0.11854        0.75236        3.37262
H          0.00770       -0.00108        4.99259
H          1.51472       -0.14275        4.04581
H          6.30603        5.85070        3.24360
H          4.80879        5.81185        2.27769
H          4.80427        4.29969       -0.01396
H          6.01713        3.01332       -0.03956
H          7.21142        3.90747        1.88158
H          6.85143        5.31525        0.84946
