48
1-N-DECYLNAPHTHALENE.gamout	Energy:    -778.4392788
C          1.29214       -1.00247        0.95856
C          1.94333        0.07991        1.55236
C          1.65203        1.42394        1.19666
C          0.69225        1.69704        0.23409
C         -0.01357        0.63237       -0.40393
C         -1.01290        0.89084       -1.39207
C         -1.70070       -0.14581       -2.00760
C         -1.41513       -1.49270       -1.65332
C         -0.44846       -1.77898       -0.69677
C          0.28523       -0.73949       -0.04206
C          1.67899       -2.41625        1.34901
C          2.66280       -3.09572        0.36919
C          3.05375       -4.52008        0.79123
C          4.05197       -5.20023       -0.15816
C          4.44731       -6.62143        0.27205
C          5.45267       -7.30477       -0.66736
C          5.84890       -8.72274       -0.22762
C          6.85783       -9.41048       -1.15963
C          7.25391      -10.82709       -0.71313
C          8.26185      -11.50916       -1.64544
H          2.70744       -0.11542        2.32352
H          2.19201        2.24637        1.69241
H          0.45800        2.73617       -0.04899
H         -1.23025        1.93854       -1.65765
H         -2.46852        0.07143       -2.76702
H         -1.96493       -2.31430       -2.13960
H         -0.24590       -2.82872       -0.43668
H          0.77160       -3.05081        1.45882
H          2.14829       -2.38764        2.35646
H          3.57701       -2.46604        0.28713
H          2.22072       -3.11436       -0.65211
H          2.13532       -5.14683        0.87237
H          3.48605       -4.49142        1.81864
H          4.96931       -4.57205       -0.23718
H          3.62245       -5.23150       -1.18637
H          3.53042       -7.25058        0.35078
H          4.87355       -6.58575        1.30172
H          6.36916       -6.67502       -0.74565
H          5.02853       -7.34345       -1.69770
H          4.93236       -9.35249       -0.14894
H          6.27098       -8.68066        0.80357
H          7.77484       -8.78119       -1.23880
H          6.43699       -9.45493       -2.19134
H          6.33597      -11.45320       -0.63308
H          7.67283      -10.77845        0.31813
H          7.85953      -11.60914       -2.67671
H          8.52451      -12.52841       -1.29259
H          9.20682      -10.92880       -1.71754
