25
1-N-BUTYLCYCLOPENTENE.gamout	Energy:    -352.3133426
C          2.85879        3.69543        1.22310
C          1.40580        3.87713        0.84355
C          3.14885        2.42477        1.58967
C          0.74297        2.56544        1.35175
C          1.90546        1.54853        1.49947
C          4.49794        1.88174        1.98338
C          5.94588        0.82336        3.86188
C          4.59623        1.45124        3.46541
C          7.14859        1.77490        3.79808
H          3.60457        4.50519        1.15898
H          1.30147        3.99690       -0.26215
H          0.94855        4.78825        1.28939
H         -0.06705        2.20507        0.68524
H          0.28525        2.74705        2.34744
H          1.99037        0.87219        0.61436
H          1.77764        0.87830        2.37788
H          4.73646        0.99796        1.34390
H          5.27443        2.64531        1.76271
H          6.13949       -0.06182        3.21270
H          5.85562        0.42332        4.89634
H          3.78617        0.72127        3.68559
H          4.39250        2.33738        4.10891
H          8.07717        1.27528        4.14508
H          6.99363        2.66899        4.44042
H          7.34193        2.13997        2.76737
