28
1-N-PENTYLCYCLOPENTENE.gamout	Energy:    -391.5945088
C          1.84308        1.54935        4.67342
C          3.26203        0.95693        4.86032
C          4.40471        1.66007        4.17333
C          1.22509        1.40207        3.26920
C          4.78227        3.10405        4.47790
C          5.29769        1.11026        3.31544
C          1.73402        2.39779        2.21241
C          5.84688        3.44551        3.40155
C          6.38963        2.07465        2.91003
C          1.05238        2.23855        0.84843
H          1.83939        2.62423        4.96696
H          1.17889        1.04084        5.40631
H          3.47826        0.95226        5.95574
H          3.25289       -0.11049        4.54629
H          1.38745        0.36075        2.90290
H          0.11974        1.51635        3.35469
H          3.91272        3.79666        4.45205
H          5.19263        3.17237        5.51484
H          5.27005        0.05835        2.98553
H          1.57087        3.43333        2.59116
H          2.83365        2.28335        2.09657
H          5.35647        3.97075        2.55461
H          6.64478        4.11727        3.77910
H          7.35355        1.80386        3.40584
H          6.60060        2.06401        1.81760
H         -0.04851        2.37624        0.92257
H          1.22684        1.22725        0.42097
H          1.43012        2.97755        0.11116
