22
1-N-PROPYLCYCLOPENTENE.gamout	Energy:    -313.0307208
C          3.97843        2.80427        2.34786
C          5.13205        1.98997        2.89330
C          3.02235        2.03436        1.77548
C          4.58075        0.53721        2.87029
C          3.40799        0.56321        1.85572
C          1.77020        2.46446        1.05373
C          0.85877        4.36576        2.54369
C          1.37682        3.94896        1.15965
H          3.96158        3.90514        2.38287
H          6.03415        2.10391        2.24429
H          5.45013        2.31203        3.90963
H          5.35582       -0.21577        2.61973
H          4.19032        0.27685        3.87701
H          3.71628        0.19620        0.84663
H          2.55621       -0.08400        2.16380
H          0.92087        1.83204        1.40864
H          1.88915        2.18689       -0.02154
H          0.59441        5.44369        2.57172
H          1.61052        4.18342        3.33890
H         -0.05369        3.79296        2.81644
H          2.24504        4.58234        0.87002
H          0.58953        4.15726        0.40185
