20
1-NAPHTHYLAMINE.gamout	Energy:    -440.9302148
C          6.87468        1.17416        1.55192
C          6.91535        1.84579        0.30006
C          5.72667        0.49501        1.93904
C          5.81321        1.80659       -0.54764
C          4.57323        0.43837        1.09615
C          3.38027       -0.23407        1.50177
C          2.28004       -0.26036        0.65441
C          4.62929        1.09264       -0.19289
C          3.48125        1.01034       -1.07170
N          3.51556        1.63096       -2.31824
C          2.33008        0.34598       -0.62514
H          7.75054        1.20483        2.21955
H          7.81584        2.40790        0.00586
H          5.68315       -0.01281        2.91647
H          5.85184        2.36235       -1.49791
H          3.34695       -0.72379        2.48758
H          1.35618       -0.77467        0.96467
H          2.74310        1.39343       -2.94384
H          4.41670        1.62827       -2.80097
H          1.45352        0.28657       -1.29177
