13
1-NITROPROPANE.gamout	Energy:    -323.4176188
N          1.09337        0.01831       -0.04832
O          1.28455       -1.19609       -0.11251
O          1.94184        0.86848        0.21565
C         -0.31389        0.51453       -0.35334
C         -1.38692       -0.34330        0.31434
C         -2.80376        0.14827       -0.01027
H         -0.33207        1.57388       -0.03460
H         -0.39644        0.47300       -1.46048
H         -1.25034       -1.39314       -0.01713
H         -1.22352       -0.33697        1.41422
H         -2.96865        1.18942        0.33943
H         -3.00502        0.12482       -1.10234
H         -3.56266       -0.49250        0.48238
