16
1-NITROBUTANE.gamout	Energy:    -362.7005588
C         52.00510        0.01392       -0.14303
N         53.34901        0.72149       -0.01344
C         50.82584        0.95959        0.06313
O         54.24421        0.11585        0.57342
O         53.44912        1.83438       -0.52996
C         49.47306        0.24016       -0.07350
C         48.27495        1.17673        0.12121
H         52.00765       -0.41552       -1.16749
H         52.03456       -0.81681        0.58687
H         50.90271        1.42471        1.07107
H         50.89887        1.78828       -0.67189
H         49.41168       -0.24224       -1.07560
H         49.42106       -0.59182        0.66486
H         47.31443        0.62880        0.03351
H         48.29485        1.65720        1.12245
H         48.26791        1.98948       -0.63556
