30
1-NONANOL.gamout	Energy:    -429.8977711
C          4.42833       -0.51917        0.00000
C          3.17030        0.34628        0.00000
C          1.86758       -0.46414        0.00000
C          0.59899        0.40317        0.00000
C         -0.70726       -0.40511        0.00000
C         -1.97702        0.46017        0.00000
C         -3.28399       -0.34704       -0.00000
C         -4.55367        0.51931        0.00000
C         -5.85528       -0.29235       -0.00000
O          5.56327        0.33644       -0.00000
H          4.41399       -1.19197        0.89669
H          4.41399       -1.19197       -0.89668
H          3.21034        1.01479        0.88896
H          3.21034        1.01479       -0.88896
H          1.84851       -1.13796       -0.88813
H          1.84851       -1.13796        0.88814
H          0.61576        1.07719        0.88757
H          0.61576        1.07719       -0.88757
H         -0.72244       -1.07958       -0.88768
H         -0.72244       -1.07959        0.88768
H         -1.96152        1.13462        0.88763
H         -1.96152        1.13462       -0.88763
H         -3.30029       -1.02163       -0.88779
H         -3.30029       -1.02163        0.88779
H         -4.53461        1.19326        0.88697
H         -4.53461        1.19326       -0.88696
H         -5.92411       -0.94781       -0.89470
H         -5.92411       -0.94782        0.89470
H         -6.74886        0.36625       -0.00000
H          6.35876       -0.22597       -0.00000
