57
1-NONADECENE.gamout	Energy:    -746.3234808
C         10.10864        3.14409        4.59995
C         10.62088        2.71245        3.21245
C          8.59655        3.42941        4.71098
C         10.02091        1.38789        2.69087
C         10.64821        0.91522        1.40539
C          8.07380        4.60018        3.85063
C          8.54108        6.01641        4.27182
C          7.57855        6.78578        5.19912
C          7.36390        6.17478        6.59486
C          6.50676        7.02549        7.55147
C          5.03349        7.17705        7.14110
C          4.19023        7.98255        8.14578
C          2.69470        8.13978        7.77803
C          1.73400        7.07711        8.34763
C          1.96451        5.63212        7.87527
C          0.91061        4.63646        8.38322
C          1.15351        3.18912        7.92473
C          0.10238        2.19456        8.43024
C         10.00270        0.72972        0.23896
H         10.36951        2.34961        5.33609
H         10.67897        4.04304        4.92603
H         10.43612        3.51154        2.45990
H         11.72832        2.60783        3.26180
H          8.03059        2.50874        4.44431
H          8.35515        3.61823        5.77959
H          8.92280        1.48712        2.54839
H         10.16517        0.60680        3.47569
H         11.73885        0.72335        1.44292
H          6.96027        4.57679        3.85169
H          8.36090        4.41597        2.79156
H          8.69554        6.63252        3.35942
H          9.54372        5.95529        4.75412
H          7.95947        7.82569        5.32453
H          6.59756        6.88807        4.68101
H          6.89337        5.16993        6.49617
H          8.35838        5.99793        7.06458
H          6.55026        6.56866        8.56664
H          6.96616        8.03619        7.66111
H          4.59008        6.16587        7.00030
H          4.96497        7.67187        6.14560
H          4.64805        8.99221        8.24893
H          4.27789        7.52044        9.15737
H          2.34129        9.13378        8.12896
H          2.59425        8.16774        6.66784
H          1.78199        7.10234        9.46140
H          0.69141        7.37302        8.08911
H          1.98654        5.60642        6.76073
H          2.97099        5.28822        8.20447
H          0.87808        4.66674        9.49752
H         -0.10070        4.96475        8.04732
H          2.16531        2.86862        8.26326
H          1.18994        3.16195        6.81149
H          0.31326        1.16124        8.08376
H         -0.91606        2.46213        8.07517
H          0.06619        2.17072        9.54087
H          8.91702        0.90982        0.14945
H         10.53028        0.38813       -0.66621
