27
1-NONENE.gamout	Energy:    -353.5100685
C          4.80106        0.64431       -1.20110
C          3.92664        0.59402       -0.17889
C          2.50353        1.08762       -0.21438
C          1.46119       -0.02479        0.03061
C          0.00975        0.47841        0.01101
C         -1.03409       -0.62094        0.25999
C         -2.48604       -0.11875        0.24104
C         -3.53069       -1.21654        0.49657
C         -4.97785       -0.70786        0.47699
H          5.82766        0.25546       -1.10242
H          4.52244        1.08012       -2.17663
H          4.25614        0.14589        0.77915
H          2.37082        1.87134        0.56881
H          2.29923        1.58489       -1.18859
H          1.59305       -0.82108       -0.73644
H          1.66924       -0.51392        1.01013
H         -0.11049        1.28050        0.77614
H         -0.19778        0.96837       -0.96844
H         -0.91238       -1.42437       -0.50325
H         -0.82637       -1.10879        1.24057
H         -2.60572        0.68634        1.00333
H         -2.69602        0.36778       -0.73991
H         -3.40852       -2.02164       -0.26381
H         -3.31793       -1.69985        1.47749
H         -5.23437       -0.25466       -0.50454
H         -5.70279       -1.52665        0.66695
H         -5.14342        0.07101        1.25208
