60
1-NONADECANOL.gamout	Energy:    -822.7257815
C         -0.19921       -0.34371       -0.00070
C          1.14480        0.39625       -0.00035
C          1.00353        1.92672       -0.00030
C          2.34175        2.68278       -0.00003
C          2.18889        4.21149        0.00001
C          3.52062        4.97919        0.00022
C          3.35323        6.50644        0.00026
C          5.81990        9.59843        0.00046
C          4.49926        8.81195        0.00042
C          5.63710       11.12396        0.00039
C          4.67803        7.28596        0.00043
C          8.10550       14.21441        0.00017
C          6.77999       13.43613        0.00027
C          7.93977       15.74183        0.00005
C          6.95797       11.91005        0.00038
C         10.46356       18.78165       -0.00034
C          9.12146       18.03579       -0.00018
C         10.32236       20.30208       -0.00043
C          9.27281       16.50678       -0.00007
O         11.62307       20.87378       -0.00056
H         -0.06306       -1.44518       -0.00074
H         -0.80451       -0.08121        0.89341
H         -0.80408       -0.08108       -0.89506
H          1.74275        0.08418       -0.88685
H          1.74237        0.08408        0.88638
H          0.40572        2.24109        0.88664
H          0.40605        2.24117       -0.88742
H          2.94011        2.37053       -0.88710
H          2.93982        2.37046        0.88722
H          1.58900        4.52147        0.88684
H          1.58926        4.52153       -0.88698
H          4.12177        4.67241       -0.88684
H          4.12154        4.67234        0.88739
H          2.75042        6.81066        0.88711
H          2.75064        6.81073       -0.88672
H          6.42486        9.29905        0.88748
H          6.42495        9.29898       -0.88648
H          3.89469        9.11219       -0.88660
H          3.89464        9.11219        0.88740
H          5.03230       11.42336       -0.88673
H          5.03225       11.42344        0.88746
H          5.28178        6.98412       -0.88656
H          5.28157        6.98412        0.88756
H          8.70803       13.90969        0.88698
H          8.70798       13.90954       -0.88663
H          6.17666       13.73824       -0.88692
H          6.17671       13.73837        0.88745
H          7.33924       16.04922       -0.88724
H          7.33932       16.04936        0.88735
H          7.56254       11.60959        0.88731
H          7.56258       11.60946       -0.88647
H         11.06459       18.48640        0.88852
H         11.06446       18.48628       -0.88926
H          8.52313       18.34631       -0.88794
H          8.52327       18.34645        0.88761
H          9.72697       20.61593       -0.89695
H          9.72711       20.61603        0.89613
H          9.87250       16.19719        0.88666
H          9.87241       16.19705       -0.88682
H         11.52094       21.84275       -0.00056
