28
1-NONANAL.gamout	Energy:    -428.6938142
C          4.26223        2.40033        2.15360
C          3.27767        2.88206        3.23005
C          3.20681        1.96693        4.46194
C          4.32927        3.31927        0.92409
C          2.22205        2.44594        5.53930
C          5.31669        2.82883       -0.15552
C          2.15114        1.53029        6.77167
C          5.38590        3.77090       -1.34106
C          1.16609        2.01242        7.84342
O          5.13098        3.47390       -2.49179
H          3.98201        1.37209        1.82901
H          5.28031        2.30651        2.59793
H          2.26141        2.97658        2.78183
H          3.55832        3.91199        3.55110
H          4.22361        1.87232        4.90944
H          2.92703        0.93704        4.13991
H          4.61402        4.34740        1.24590
H          3.31510        3.41239        0.47404
H          1.20506        2.54020        5.09172
H          2.50096        3.47627        5.86153
H          5.05099        1.81695       -0.52699
H          6.34033        2.77435        0.28580
H          3.16906        1.43687        7.21495
H          1.87450        0.50173        6.44489
H          5.69192        4.83285       -1.07092
H          1.43746        3.02254        8.21882
H          0.13175        2.07869        7.44253
H          1.14223        1.32735        8.71615
