25
1-OCTANAL.gamout	Energy:    -389.4109642
C          4.65184        2.57184        2.22713
C          4.11867        3.79595        1.46645
C          2.75431        4.29176        1.96925
C          6.01346        2.07385        1.72015
C          2.22712        5.51729        1.19307
C          6.55341        0.84769        2.47419
C          0.89283        6.00555        1.72072
C          7.91166        0.35993        1.95630
O         -0.13261        6.08250        1.07252
H          4.72827        2.81607        3.31213
H          3.90779        1.74475        2.15855
H          4.04134        3.55210        0.38205
H          4.85972        4.62580        1.53455
H          2.82665        4.54194        3.05270
H          2.00995        3.46705        1.89629
H          5.93473        1.83121        0.63475
H          6.75747        2.90164        1.78654
H          2.11425        5.29971        0.11024
H          2.95559        6.35581        1.30062
H          5.80811        0.02243        2.40715
H          6.63128        1.09165        3.55844
H          0.90617        6.29649        2.82040
H          8.27461       -0.52503        2.51938
H          7.85646        0.07272        0.88425
H          8.68668        1.15141        2.04457
