27
1-OCTANOL.gamout	Energy:    -390.6149959
C          4.00184        3.20987        1.52214
C          5.26516        3.18309        2.39384
C          6.10846        1.90983        2.21886
C          3.14783        4.47714        1.68488
C          7.37157        1.87314        3.08744
C          1.88545        4.49101        0.80979
C          8.19797        0.60277        2.90081
C          1.03154        5.75539        0.97076
O          9.33713        0.67388        3.74797
H          4.29203        3.09879        0.45126
H          3.37704        2.31561        1.75374
H          5.89430        4.07419        2.16399
H          4.97769        3.28967        3.46546
H          6.39228        1.80631        1.14550
H          5.47478        1.02062        2.44570
H          2.85476        4.59013        2.75481
H          3.76954        5.37283        1.45058
H          7.10419        1.95924        4.16450
H          8.02315        2.74735        2.86305
H          2.18106        4.37450       -0.25814
H          1.26918        3.59328        1.04632
H          8.48688        0.50614        1.82178
H          7.56029       -0.28940        3.13435
H          1.60505        6.66854        0.70226
H          0.13045        5.72447        0.32356
H          0.68614        5.88002        2.01959
H          9.85331       -0.14187        3.61800
