57
1-OCTADECANOL.gamout	Energy:    -783.4430399
C         -3.48804      -10.72704        0.17974
C         -3.06210       -9.47824       -0.60219
C         -2.48981       -8.36041        0.28293
C         -2.05959       -7.10560       -0.49133
C         -1.48623       -5.98913        0.39396
C         -1.05673       -4.73425       -0.38092
C         -0.48231       -3.61778        0.50366
C         -0.05499       -2.36256       -0.27191
C          0.52013       -1.24553        0.61149
C          0.94402        0.01027       -0.16503
C          1.51963        1.12806        0.71709
C          1.93939        2.38473       -0.06025
C          2.51560        3.50303        0.82081
C          2.93128        4.76071        0.04295
C          3.50867        5.87851        0.92348
C          3.92091        7.13659        0.14419
C          4.49977        8.24909        1.02760
C          4.90736        9.49824        0.25101
O          5.42842       10.44973        1.17039
H         -3.89423      -11.51329       -0.48974
H         -2.63144      -11.16871        0.73308
H         -4.27357      -10.48754        0.92886
H         -3.93114       -9.08165       -1.17573
H         -2.30533       -9.75924       -1.37050
H         -1.61925       -8.75547        0.85704
H         -3.24596       -8.07737        1.05245
H         -2.93038       -6.71059       -1.06478
H         -1.30394       -7.38906       -1.26096
H         -0.61515       -6.38405        0.96696
H         -2.24111       -5.70541        1.16419
H         -1.92834       -4.33934       -0.95315
H         -0.30228       -5.01766       -1.15169
H          0.38981       -4.01243        1.07527
H         -1.23610       -3.33452        1.27512
H         -0.92811       -1.96841       -0.84237
H          0.69812       -2.64528       -1.04423
H          1.39394       -1.63915        1.18122
H         -0.23234       -0.96313        1.38454
H          0.06891        0.40319       -0.73330
H          1.69562       -0.27127       -0.93924
H          2.39555        0.73579        1.28448
H          0.76868        1.40914        1.49209
H          1.06207        2.77637       -0.62600
H          2.68936        2.10468       -0.83660
H          3.39380        3.11193        1.38544
H          1.76644        3.78260        1.59803
H          2.05171        5.15148       -0.51999
H          3.67940        4.48203       -0.73572
H          4.38938        5.48888        1.48475
H          2.76209        6.15795        1.70287
H          3.03803        7.52495       -0.41528
H          4.66625        6.85576       -0.63640
H          5.39143        7.87783        1.58095
H          3.76224        8.54924        1.80553
H          4.01719        9.89771       -0.30077
H          5.66199        9.21935       -0.52980
H          5.68413       11.24155        0.66363
