37
1-OCTYLPYRROLIDIN-2-ONE.gamout	Energy:    -600.6871344
O          1.79130       -2.42285       -3.33422
N          1.66262       -0.99084       -1.51499
C          1.20774       -2.00609       -0.56986
C          2.11397        0.34239       -1.12727
C         -0.31999       -2.19567       -0.54099
C          2.30870        1.05883       -2.48534
C         -1.11695       -0.97737       -0.05284
C          2.62436       -0.08479       -3.46346
C         -2.63885       -1.19055       -0.06323
C          1.97410       -1.32270       -2.82349
C         -3.44109        0.02860        0.41591
C         -4.96295       -0.18159        0.40814
C         -5.76447        1.04136        0.88099
C         -7.28251        0.82286        0.87503
H          1.67890       -2.96698       -0.86993
H          1.58851       -1.73590        0.43955
H          1.36805        0.85226       -0.48124
H          3.06924        0.28967       -0.54779
H         -0.64723       -2.47970       -1.56505
H         -0.54558       -3.07242        0.10785
H          3.09482        1.83823       -2.43446
H          1.36299        1.56163       -2.77789
H         -0.78938       -0.70644        0.97841
H         -0.87346       -0.09775       -0.69169
H          3.71631       -0.28470       -3.54459
H          2.24855        0.06479       -4.49453
H         -2.89446       -2.07204        0.56950
H         -2.95942       -1.46218       -1.09543
H         -3.18902        0.90738       -0.22240
H         -3.11273        0.30427        1.44515
H         -5.21870       -1.05844        1.04763
H         -5.28881       -0.45945       -0.62128
H         -5.43176        1.32065        1.90695
H         -5.51055        1.91463        0.23744
H         -7.82937        1.72607        1.21720
H         -7.65175        0.57488       -0.14326
H         -7.57410       -0.01667        1.54224
