43
1-OCTYLAZEPAN-2-ONE.gamout	Energy:    -679.2496530
O          2.31150       -2.14331        0.70136
N          2.18932        0.05954        0.08812
C          2.74327        1.22729       -0.60395
C          0.89812        0.19726        0.76883
C          3.98661        1.84758        0.06447
C         -0.32096        0.02267       -0.15238
C          5.29521        1.08736       -0.20570
C          5.29552       -0.39390        0.20752
C         -1.65338        0.18475        0.59463
C          4.22020       -1.26218       -0.48555
C         -2.89420        0.00778       -0.29366
C          2.82478       -1.16932        0.14285
C         -4.22296        0.15496        0.46347
C         -5.46988       -0.01542       -0.41710
C         -6.79615        0.12132        0.34734
C         -8.03790       -0.04814       -0.53681
H          1.93417        1.98429       -0.64951
H          2.97401        0.97542       -1.66491
H          0.87123       -0.57877        1.56047
H          0.86587        1.19286        1.26647
H          3.79782        1.92284        1.15902
H          4.09767        2.89103       -0.30486
H         -0.27366        0.75583       -0.99053
H         -0.26777       -0.98731       -0.61474
H          6.13313        1.60939        0.30629
H          5.52153        1.14927       -1.29603
H          5.17902       -0.48518        1.31091
H          6.29461       -0.82186       -0.02606
H         -1.69197       -0.54889        1.43248
H         -1.68920        1.18965        1.07722
H          4.48794       -2.33347       -0.41100
H          4.17808       -1.01256       -1.57055
H         -2.85671       -0.99331       -0.78196
H         -2.86179        0.74769       -1.12693
H         -4.25547        1.15394        0.95772
H         -4.25418       -0.58763        1.29426
H         -5.43498       -1.01173       -0.91647
H         -5.44446        0.73229       -1.24396
H         -6.81907       -0.62733        1.17203
H         -6.82707        1.11575        0.84884
H         -8.97572        0.05347        0.04794
H         -8.06525        0.71193       -1.34703
H         -8.05442       -1.04702       -1.02349
