24
1-OCTENE.gamout	Energy:    -314.2273322
C          2.88172        2.18556        2.50574
C          2.75727        2.24155        0.97566
C          3.67695        3.27889        0.31381
C          1.95596        1.14077        3.16427
C          3.56142        3.33066       -1.21779
C          2.09199        1.07788        4.66355
C          4.48724        4.36514       -1.87054
C          1.10554        1.29921        5.55227
H          2.66265        3.18845        2.93752
H          3.93890        1.96545        2.78142
H          1.69929        2.45664        0.69835
H          2.97583        1.23310        0.55302
H          4.73453        3.06558        0.59504
H          3.45653        4.28791        0.73401
H          0.89827        1.34749        2.88729
H          2.19764        0.13817        2.73742
H          2.50502        3.54551       -1.49852
H          3.77923        2.32026       -1.63390
H          3.10320        0.83211        5.04343
H          4.25729        5.39351       -1.51778
H          4.39089        4.36263       -2.97619
H          5.55264        4.16456       -1.62682
H          1.28207        1.23787        6.63856
H          0.08092        1.54888        5.22515
