33
1-PENTYLNAPHTHALENE.gamout	Energy:    -582.0203618
C          3.35942        4.41046        1.64587
C          3.33310        3.83930        2.97803
C          2.18482        4.34257        0.83473
C          4.55359        5.03158        1.17019
C          2.11616        3.23186        3.42119
C          4.51718        3.91194        3.80054
C          0.99057        3.18395        2.60710
C          1.02327        3.74267        1.30056
C          5.67975        5.09472        1.97678
C          5.65251        4.53770        3.28266
C          4.57160        3.30010        5.18783
C          4.83491        1.77293        5.18821
C          5.01038        1.13370        6.58464
C          3.73309        0.64662        7.29819
C          2.73677        1.73027        7.73260
H          2.21920        4.78096       -0.17609
H          4.56186        5.46128        0.15539
H          2.06866        2.79340        4.42891
H          0.06700        2.71097        2.97686
H          0.12693        3.70043        0.66168
H          6.59921        5.57877        1.61107
H          6.55621        4.60017        3.91188
H          5.39478        3.79104        5.75139
H          3.64255        3.53025        5.75053
H          4.02454        1.24978        4.63161
H          5.75872        1.59840        4.59414
H          5.68488        0.25551        6.47719
H          5.55504        1.84599        7.24795
H          3.21461       -0.08985        6.64195
H          4.04440        0.07219        8.19949
H          1.91112        1.29545        8.33422
H          3.22729        2.50870        8.35589
H          2.26712        2.24601        6.86869
