18
1-PENTANETHIOL.gamout	Energy:    -595.7171359
C          4.42177        1.41597        1.72566
C          2.99210        1.93422        1.49657
C          2.03379        0.86450        0.94688
C          5.37744        2.48755        2.26114
C          0.60587        1.37454        0.72056
S          7.07823        1.88168        2.63597
H          4.82734        1.01316        0.76922
H          4.40975        0.55908        2.43490
H          3.01527        2.80124        0.79613
H          2.58580        2.33341        2.45484
H          2.01730       -0.00095        1.64775
H          2.44472        0.46684       -0.00899
H          5.01879        2.88200        3.23633
H          5.43715        3.35698        1.57186
H          0.15193        1.74497        1.66467
H          0.58458        2.21520       -0.00591
H         -0.05576        0.57617        0.32469
H          7.38362        1.49479        1.36325
