45
1-PENTADECENE.gamout	Energy:    -589.1980281
C          4.86970        5.21264        2.79098
C          5.11243        6.12893        4.00214
C          6.48224        5.96336        4.68776
C          3.45614        5.35297        2.20244
C          7.72215        6.27440        3.82342
C          3.18849        4.52217        0.93282
C          7.78077        7.69439        3.22277
C          3.27294        2.99107        1.08658
C          7.79249        8.87457        4.21739
C          2.24720        2.37690        2.05219
C          9.11479        9.10952        4.98560
C          2.28216        0.84047        2.09456
C          9.43498        8.12835        6.08419
C          1.26856        0.22678        3.06717
C         10.60489        7.48326        6.25192
H          5.05300        4.15714        3.09740
H          5.61595        5.42616        1.99156
H          4.31650        5.93533        4.75703
H          4.96666        7.18939        3.69182
H          6.57211        4.91793        5.06175
H          6.50024        6.60068        5.59990
H          3.27569        6.42596        1.96386
H          2.70757        5.10071        2.98836
H          7.77958        5.54023        2.98901
H          8.62910        6.09583        4.43955
H          2.17788        4.78423        0.54373
H          3.90474        4.83908        0.14059
H          6.91668        7.83357        2.53471
H          8.68268        7.77189        2.57374
H          3.13827        2.53134        0.08103
H          4.29869        2.69595        1.40690
H          7.57003        9.80517        3.65046
H          6.95464        8.76913        4.94340
H          1.22295        2.71209        1.76478
H          2.41100        2.77028        3.08198
H          9.05373       10.12300        5.44921
H          9.96302        9.15818        4.26538
H          2.10271        0.44558        1.06798
H          3.30950        0.50570        2.36576
H          8.62890        7.96364        6.82640
H          1.31672       -0.88218        3.06852
H          1.44962        0.56730        4.10974
H          0.22745        0.51424        2.80565
H         10.77342        6.80241        7.10175
H         11.44047        7.61601        5.54249
