42
1-PENTAETHYLBENZENE.gamout	Energy:    -624.9017718
C          4.39275        3.88051        1.60998
C          3.15219        3.33479        2.07227
C          2.27550        4.11248        2.89048
C          2.75362        1.91718        1.66798
C          4.75181        5.20645        1.97965
C          5.32498        3.07425        0.70982
C          3.88399        5.93639        2.81068
C          6.02837        5.90247        1.52111
C          2.66330        5.42571        3.27770
C          1.77765        6.33851        4.11583
C          0.93691        3.57047        3.38292
C          7.07085        6.09977        2.63908
C          6.60882        2.55283        1.38833
C          3.45297        0.78715        2.45010
C          1.01318        2.78390        4.70627
C          0.84111        7.22059        3.26589
H          2.94344        1.77018        0.58271
H          1.65966        1.79059        1.78265
H          4.78214        2.21093        0.27818
H          5.61476        3.69804       -0.16471
H          4.16743        6.96423        3.10035
H          6.49145        5.35804        0.67424
H          5.75143        6.90287        1.11980
H          1.17899        5.75123        4.84170
H          2.43075        6.99693        4.72872
H          0.23073        4.41526        3.51515
H          0.46788        2.93046        2.60751
H          7.40563        5.12952        3.06154
H          6.65480        6.69381        3.47923
H          7.96823        6.63414        2.26173
H          7.19512        1.91876        0.68996
H          7.26786        3.38003        1.71895
H          6.37608        1.94311        2.28538
H          4.54880        0.78166        2.28350
H          3.28960        0.88931        3.54272
H          3.06432       -0.20650        2.14179
H          0.00498        2.45221        5.03361
H          1.64932        1.88028        4.61056
H          1.44703        3.40231        5.51977
H          1.42540        7.87147        2.58288
H          0.16483        6.60692        2.63449
H          0.20960        7.87500        3.90323
