13
1-PENTYNE.gamout	Energy:    -195.1281691
C          0.94730        1.77093        2.12731
C          2.00875        0.64395        2.19140
C          3.39410        1.12029        2.15410
C          0.97499        2.56642        0.81824
C          4.54784        1.52747        2.11609
H          1.09943        2.45372        2.99148
H         -0.05231        1.30485        2.27006
H          1.86073        0.04395        3.11760
H          1.84761       -0.06204        1.34412
H          0.21354        3.37338        0.81814
H          1.96781        3.03645        0.65801
H          0.77084        1.91191       -0.05635
H          5.56763        1.88571        2.08916
