15
1-PENTENE.gamout	Energy:    -196.3776255
C          1.82207        1.37771        0.93529
C          3.29554        1.85302        0.94614
C          4.16057        1.20284        1.99576
C          1.03561        1.67994        2.21810
C          5.24583        0.44448        1.75054
H          1.31077        1.86344        0.07456
H          1.79700        0.28459        0.72792
H          3.74437        1.67567       -0.05560
H          3.30579        2.95837        1.10135
H          3.86169        1.36517        3.04893
H          1.01248        2.77037        2.43258
H          1.47329        1.17482        3.10438
H         -0.01625        1.33645        2.13271
H          5.59389        0.25304        0.72004
H          5.83149       -0.00850        2.56705
