43
1-PENTADECYNE.gamout	Energy:    -587.9551592
C          0.22206        1.45466        2.66660
C          1.71793        1.71927        2.87628
C          2.31272        2.73381        1.88673
C          3.80868        3.00846        2.10099
C          4.40778        4.01781        1.10744
C          5.88286        4.37954        1.36308
C         10.80923        2.86980        1.41795
C          9.34156        2.47039        1.20508
C         11.80052        1.70776        1.25152
C          8.34617        3.62810        1.37829
C          6.87862        3.22267        1.17480
C         16.81996        1.59680        1.68475
C         15.65102        1.28107        1.50808
C         14.24608        0.92490        1.30118
C         13.26564        2.10899        1.47029
H         -0.37402        2.38578        2.77985
H          0.01943        1.05664        1.64901
H         -0.17116        0.71687        3.39675
H          2.28157        0.76118        2.79800
H          1.89155        2.08045        3.91585
H          1.74611        3.69182        1.95912
H          2.14968        2.37084        0.84510
H          4.36383        2.04455        2.04155
H          3.96973        3.38079        3.13985
H          3.79991        4.95069        1.13656
H          4.29939        3.62329        0.07015
H          6.17300        5.21638        0.68797
H          5.98339        4.78284        2.39798
H         11.07839        3.68756        0.71000
H         10.92611        3.30821        2.43625
H          9.07821        1.65220        1.91519
H          9.22119        2.02971        0.18798
H         11.53147        0.89080        1.96090
H         11.68491        1.26762        0.23360
H          8.46593        4.06431        2.39743
H          8.60843        4.44969        0.67183
H          6.75020        2.78947        0.15515
H          6.63493        2.39734        1.88153
H         17.85452        1.87034        1.83972
H         13.96947        0.10933        2.00869
H         14.12730        0.48680        0.28323
H         13.39347        2.54021        2.48780
H         13.54963        2.91672        0.76004
