40
1-TETRADECYNE.gamout	Energy:    -548.6736745
C          0.25365        8.20985        0.22363
C          0.82657        7.19780        0.60524
C          1.52054        5.99850        1.07797
C          2.41197        6.23456        2.31920
C          3.11949        4.95952        2.79851
C          4.00793        5.17439        4.03340
C          4.71194        3.90016        4.52386
C          5.59735        4.11457        5.76107
C          6.29616        2.83985        6.25764
C          7.17957        3.05442        7.49628
C          7.87491        1.77917        7.99645
C          8.75793        1.99364        9.23517
C          9.45247        0.71792        9.73748
C         10.33280        0.94233       10.97304
H         -0.25472        9.10085       -0.11755
H          2.13898        5.58473        0.24848
H          0.76645        5.21013        1.30685
H          1.78641        6.65213        3.13846
H          3.16374        7.01878        2.07953
H          3.73632        4.54376        1.96838
H          2.35782        4.17747        3.02487
H          3.39152        5.59604        4.86059
H          4.77190        5.95319        3.80492
H          5.33015        3.47922        3.69739
H          3.94713        3.12108        4.74963
H          4.98031        4.54077        6.58572
H          6.36481        4.89032        5.53309
H          5.52844        2.06362        6.48336
H          6.91524        2.41464        5.43396
H          7.94917        3.82801        7.26800
H          6.56217        3.48368        8.31912
H          7.10504        1.00516        8.22265
H          8.49389        1.35107        7.17413
H          8.14123        2.42419       10.05814
H          9.52877        2.76628        9.00663
H          8.67960       -0.05226        9.96246
H         10.06816        0.28961        8.91391
H          9.74138        1.33508       11.82779
H         10.81960        0.00290       11.30816
H         11.13795        1.67948       10.76532
