45
1-TETRADECANOL.gamout	Energy:    -626.3115195
C         -0.04709       -1.33114       -0.30554
C          0.14442        0.07727        0.27011
C          1.26334        0.88007       -0.41219
C          1.45712        2.29058        0.16383
C          2.57252        3.10106       -0.51372
C          2.75721        4.51012        0.06957
C          3.86907        5.33016       -0.60208
C          4.04558        6.73735       -0.01161
C          7.89757       13.41634       -0.18920
C          7.72714       12.02445       -0.79292
O          8.95430       14.07761       -0.87203
C          6.61210       11.20106       -0.13571
C          6.44062        9.79847       -0.73884
C          5.32845        8.96927       -0.07962
C          5.15612        7.56438       -0.67676
H         -0.86237       -1.87818        0.21210
H          0.87778       -1.93945       -0.20614
H         -0.30208       -1.29611       -1.38660
H         -0.80998        0.64724        0.19236
H          0.35974        0.00846        1.36114
H          2.22066        0.31304       -0.33483
H          1.04936        0.95281       -1.50418
H          0.49850        2.85532        0.08775
H          1.66999        2.21544        1.25573
H          2.35969        3.17855       -1.60537
H          3.53296        2.53958       -0.43786
H          2.96861        4.43087        1.16143
H          1.79532        5.06939       -0.00522
H          3.65810        5.41168       -1.69378
H          4.83240        4.77357       -0.52699
H          4.25506        6.65365        1.08029
H          3.08137        7.29267       -0.08583
H          6.93114       13.97881       -0.27354
H          8.10703       13.31945        0.90799
H          7.53250       12.13978       -1.88271
H          8.70031       11.49016       -0.71150
H          9.05338       14.96288       -0.47784
H          6.81531       11.10614        0.95649
H          5.64694       11.75452       -0.21192
H          7.40515        9.24461       -0.66287
H          6.23615        9.88962       -1.83073
H          5.53546        8.88094        1.01241
H          4.36378        9.52379       -0.15403
H          6.12079        7.01016       -0.60162
H          4.94804        7.65027       -1.76865
