40
1-TRIDECANAL.gamout	Energy:    -585.8200460
C          5.94761        1.47948        1.35172
C          4.92610        1.37178        2.49477
C          3.55128        0.85661        2.04145
C          7.33366        1.97432        1.79320
C          2.51949        0.65740        3.16887
C          8.34465        2.08056        0.63902
C          2.05672        1.90579        3.95019
C          9.72541        2.63701        1.02773
C          1.27209        2.96507        3.14092
C         10.53492        1.73796        1.96640
C          2.12208        4.07141        2.49056
C         11.93002        2.23815        2.28139
C          1.29243        5.10624        1.72128
O         12.42056        3.26662        1.85551
H          6.05196        0.48561        0.85742
H          5.54947        2.16340        0.56631
H          5.32702        0.69478        3.28517
H          4.82033        2.36906        2.97876
H          3.13731        1.53890        1.26432
H          3.69187       -0.12136        1.52681
H          7.23151        2.97195        2.28041
H          7.72312        1.29129        2.58306
H          1.61750        0.16848        2.73536
H          2.93469       -0.07646        3.89754
H          8.46681        1.07891        0.16418
H          7.91141        2.73399       -0.15132
H          1.41032        1.54504        4.78004
H          2.92414        2.39548        4.44880
H         10.32758        2.81335        0.11074
H          9.61026        3.63809        1.49918
H          0.66238        2.45703        2.35695
H          0.53222        3.45825        3.81187
H         10.02958        1.57819        2.94876
H         10.65105        0.70640        1.55212
H          2.70822        4.58346        3.28769
H          2.87365        3.62241        1.80479
H         12.51919        1.55782        2.97653
H          0.54904        5.60600        2.37964
H          1.93139        5.89977        1.28087
H          0.72628        4.63603        0.88842
