42
1-TRIDECANOL.gamout	Energy:    -587.0292182
C          2.19708        0.60136        2.08868
C          2.13847        0.14454        3.55401
C          2.67354        1.18101        4.55383
C          1.66159       -0.43430        1.08827
C          2.61156        0.72674        6.01982
C          1.71487        0.02642       -0.37579
C          3.14697        1.76383        7.01885
C          1.17806       -1.00886       -1.37619
C          3.08360        1.31194        8.48532
C          1.22670       -0.53885       -2.83561
C          3.61950        2.34982        9.48418
C          0.69188       -1.56732       -3.82885
C          3.55134        1.89203       10.94632
O          0.78014       -1.01837       -5.13717
H          3.24920        0.85784        1.82355
H          1.62355        1.55093        1.97655
H          1.08552       -0.11014        3.81784
H          2.71065       -0.80569        3.66779
H          3.72678        1.43500        4.29061
H          2.10213        2.13154        4.43881
H          0.60983       -0.69153        1.35452
H          2.23609       -1.38356        1.19868
H          1.55784        0.47402        6.28243
H          3.18213       -0.22420        6.13570
H          2.76505        0.28555       -0.64499
H          1.13835        0.97427       -0.48471
H          4.20084        2.01592        6.75617
H          2.57686        2.71496        6.90188
H          1.75682       -1.95581       -1.26796
H          0.12830       -1.26821       -1.10408
H          3.65327        0.36048        8.60340
H          2.02946        1.06065        8.74847
H          0.63951        0.39886       -2.95824
H          2.27088       -0.28541       -3.12643
H          4.67233        2.60030        9.21929
H          3.04962        3.29967        9.36308
H         -0.36420       -1.82797       -3.55728
H          1.28257       -2.51542       -3.73403
H          3.94521        2.66590       11.63756
H          2.50597        1.67155       11.25208
H          4.14326        0.96562       11.10897
H          0.43610       -1.68283       -5.76090
