34
1-UNDECANAL.gamout	Energy:    -507.2583752
C          5.91935        2.92305        5.88767
C          5.44312        3.92734        4.82147
C          4.16756        3.51898        4.06665
C          4.98310        2.76258        7.09697
C          3.76474        4.49880        2.95422
C          5.52930        1.79951        8.16293
C          2.49248        4.09049        2.19695
C          4.59018        1.62802        9.37495
C          2.08403        5.06452        1.08115
C          5.19150        0.75024       10.45478
C          0.81333        4.64239        0.33419
O          4.69180       -0.26709       10.89370
H          6.92261        3.23750        6.25458
H          6.07423        1.92775        5.40992
H          5.28839        4.92401        5.29694
H          6.26306        4.07385        4.08280
H          4.31267        2.50372        3.62854
H          3.31853        3.41629        4.78026
H          4.80469        3.76156        7.55889
H          3.98460        2.40165        6.76394
H          3.62421        5.51455        3.39210
H          4.60681        4.60237        2.23078
H          6.52437        2.16007        8.51172
H          5.71274        0.80286        7.70181
H          2.63400        3.07304        1.76293
H          1.65013        3.98788        2.92044
H          3.61043        1.19756        9.07979
H          4.40048        2.62968        9.82941
H          1.94228        6.08005        1.51706
H          2.92595        5.16715        0.35871
H          6.19773        1.11709       10.83956
H         -0.05497        4.56569        1.02368
H          0.93737        3.64799       -0.14639
H          0.54213        5.36550       -0.46287
