36
1-UNDECANOL.gamout	Energy:    -508.4583133
C          6.19179        3.26876        2.57464
C          5.59613        4.65217        2.26115
C          4.95917        4.76773        0.86175
C          6.96095        3.17044        3.90610
C          3.72994        3.87218        0.59971
C          6.09057        3.29628        5.16730
C          2.50194        4.12293        1.49632
C          6.86509        3.21626        6.49594
C          1.86729        5.51615        1.35385
C          7.52510        1.86653        6.77982
C          0.59233        5.69389        2.18909
O          6.51479        0.86450        6.81869
H          6.87745        2.98355        1.74396
H          5.38538        2.50082        2.56980
H          4.84853        4.92869        3.03788
H          6.40176        5.41682        2.34399
H          5.73428        4.52389        0.09962
H          4.69106        5.83139        0.67510
H          7.76182        3.94715        3.92776
H          7.49397        2.19406        3.92529
H          3.42634        3.99680       -0.46472
H          4.02756        2.80409        0.69305
H          5.31726        2.49663        5.16214
H          5.53702        4.26045        5.14587
H          1.73035        3.35553        1.25918
H          2.76644        3.94722        2.56444
H          6.17086        3.43930        7.33584
H          7.65675        3.99890        6.52826
H          2.60475        6.29964        1.63815
H          1.63783        5.70144        0.27914
H          8.29340        1.64608        5.99573
H          8.08111        1.93248        7.74938
H         -0.18669        4.95606        1.89987
H          0.79466        5.54986        3.27218
H          0.15685        6.70685        2.06229
H          6.95365        0.00401        6.94780
