29
2,2,5-TRIMETHYLHEXANE.gamout	Energy:    -354.7399614
C          3.24393       -0.03366       -0.04967
C          1.89467        0.48972        0.47310
C          0.72388       -0.33693       -0.11217
C         -0.67443        0.23513        0.16868
C         -1.89151       -0.51800       -0.44868
C         -3.17719        0.22251       -0.01619
H          4.09021        0.58258        0.32079
H          3.42351       -1.07991        0.28283
H          3.28208       -0.02666       -1.15959
C          1.88458        0.52532        2.01207
H          1.77638        1.53837        0.10852
H          0.87676       -0.41580       -1.21156
H          0.80076       -1.37703        0.27991
H         -0.83947        0.28859        1.26842
H         -0.70542        1.29045       -0.19088
C         -1.81361       -0.52358       -1.99164
C         -1.95628       -1.97205        0.07178
H         -4.08386       -0.27705       -0.41954
H         -3.27201        0.25197        1.09044
H         -3.18095        1.27191       -0.38162
H         -1.99264       -1.99893        1.18211
H         -1.07957       -2.57047       -0.25258
H         -2.86557       -2.48753       -0.30498
H         -0.92795       -1.08108       -2.36130
H         -1.75692        0.51013       -2.39578
H         -2.71288       -1.00592       -2.43102
H          2.73816        1.11665        2.40559
H          1.96723       -0.50157        2.43189
H          0.95634        0.97884        2.41648
