26
2,2,3,3-TETRAMETHYLBUTANE.gamout	Energy:    -315.4486478
C          2.09084        2.23448        1.69018
C          3.51658        2.17137        2.41395
C          3.72535        0.81025        3.12262
C          3.65082        3.28385        3.48292
C          4.67030        2.35646        1.39819
C          1.99158        3.46308        0.75297
C          1.84293        0.96798        0.83404
C          0.94077        2.34022        2.72208
H          3.80893       -0.02973        2.40354
H          4.66559        0.83008        3.71367
H          2.90131        0.57381        3.82780
H          4.68438        3.29804        3.88961
H          3.44895        4.29344        3.06801
H          2.96657        3.12710        4.34164
H          4.61189        1.63766        0.55393
H          4.69322        3.37965        0.97082
H          5.64756        2.19076        1.89969
H          0.95856        3.55505        0.35510
H          2.22529        4.41277        1.27801
H          2.67023        3.38454       -0.12118
H          1.72548        0.05702        1.45551
H          0.90830        1.08159        0.24438
H          2.66516        0.78513        0.11131
H         -0.03957        2.26575        2.20511
H          0.97163        1.52792        3.47854
H          0.95048        3.30764        3.26439
