32
2,2,6-TRIMETHYLHEPTANE.gamout	Energy:    -394.0228083
C         -0.10420       53.03074        0.90027
C          1.11222       53.03534       -0.04127
C          1.68323       54.46443       -0.19077
C          2.17245       52.02474        0.43231
C          2.77424       54.63089       -1.26187
C          3.24615       56.08524       -1.41698
C          4.34655       56.37274       -2.48195
C          5.63691       55.58436       -2.16673
C          4.66092       57.88556       -2.44252
C          3.84957       56.00367       -3.89822
H         -0.55264       52.01826        0.98629
H          0.18348       53.35378        1.92525
H         -0.89902       53.72131        0.54634
H          0.76177       52.71132       -1.05091
H          0.84324       55.15871       -0.42403
H          2.08024       54.79669        0.79837
H          3.02717       51.95413       -0.27134
H          1.74265       51.00564        0.53277
H          2.58003       52.31306        1.42677
H          3.64203       53.98409       -1.00660
H          2.38308       54.25200       -2.23356
H          2.36553       56.72737       -1.65353
H          3.62032       56.44431       -0.42955
H          6.44730       55.84834       -2.87971
H          5.48141       54.48765       -2.23884
H          6.00880       55.80500       -1.14265
H          5.43976       58.15624       -3.18736
H          3.75638       58.49069       -2.66661
H          5.03128       58.19539       -1.44144
H          2.90965       56.54179       -4.14728
H          4.60505       56.27498       -4.66629
H          3.65329       54.91584       -3.99915
