32
2,2,4,5-TETRAMETHYLHEXANE.gamout	Energy:    -394.0156060
C          0.78483        0.96711        1.11223
C          1.91246        1.31280        0.12255
C          2.85327        0.10140       -0.02071
C          1.38551        1.80560       -1.26458
C          0.24266        2.83079       -1.12185
C          2.53186        2.39183       -2.14051
C          2.58440        1.99372       -3.64873
C          3.73230        2.79250       -4.30823
C          2.88132        0.48493       -3.80322
C          1.26510        2.32733       -4.37928
H          1.20168        0.55706        2.05640
H          0.16703        1.84661        1.38207
H          0.10592        0.19319        0.68986
H          2.50032        2.15606        0.56178
H          3.69981        0.29800       -0.70907
H          3.28565       -0.18932        0.95987
H          2.30233       -0.78096       -0.41460
H          0.97135        0.90468       -1.77769
H         -0.05228        3.24603       -2.10630
H         -0.66962        2.39498       -0.66661
H          0.55916        3.68824       -0.48701
H          2.48722        3.50363       -2.08035
H          3.51728        2.11887       -1.70204
H          3.84033        2.52843       -5.38205
H          3.55021        3.88699       -4.24743
H          4.70474        2.58586       -3.81179
H          2.94555        0.20269       -4.87599
H          2.09006       -0.14383       -3.34336
H          3.84762        0.21109       -3.32824
H          1.02265        3.40964       -4.31205
H          1.34053        2.07115       -5.45807
H          0.40532        1.75892       -3.96696
