29
2,2,4,4-TETRAMETHYLPENTANE.gamout	Energy:    -354.7305452
C          3.31608        2.08664        1.67642
C          1.80684        1.89862        2.05139
C          4.37609        2.82941        2.55956
C          1.58293        1.36690        3.48417
C          1.24397        0.85221        1.05670
C          0.99685        3.20345        1.85894
C          3.90925        4.21684        3.05222
C          5.61751        3.03613        1.65431
C          4.81703        1.97526        3.77195
H          3.31928        2.58240        0.67795
H          3.73595        1.07063        1.49290
H          1.86333        2.11194        4.25668
H          2.16458        0.44046        3.67383
H          0.50970        1.12384        3.64015
H          1.74011       -0.13413        1.18028
H          1.39496        1.17426        0.00383
H          0.15330        0.70373        1.20770
H         -0.08852        3.01153        2.00146
H          1.13086        3.61115        0.83391
H          1.28609        3.99605        2.57579
H          3.08451        4.14338        3.79022
H          4.74699        4.75202        3.54911
H          3.56061        4.85390        2.21213
H          5.98728        2.07057        1.24704
H          6.45225        3.50323        2.21976
H          5.38202        3.69661        0.79291
H          4.00393        1.83139        4.50926
H          5.66267        2.46116        4.30484
H          5.16270        0.97030        3.44766
