9
2,2,2-TRIFLUOROETHANOL.gamout	Energy:    -452.4217232
F         -0.44045       -0.77951        1.09198
C         -0.35296        0.01093       -0.00000
C          0.92190        0.84986       -0.00001
O          2.03024       -0.01595        0.00001
F         -0.44046       -0.77951       -1.09198
F         -1.43065        0.84024        0.00000
H          0.86490        1.50741       -0.90170
H          0.86489        1.50745        0.90165
H          2.83597        0.53063        0.00002
