50
2,2,4,4,6,8,8-HEPTAMETHYLNONANE.gamout	Energy:    -629.6937305
C          1.00596        0.75306       -0.85309
C          2.12632        0.21995        0.09977
H          4.19004        2.94185        1.07653
H          2.61345        3.05146        0.26639
H          2.72312        2.34559        1.90950
H          2.25370        0.59384       -2.66677
H          0.79488        1.61472       -2.86399
H          2.20809        2.24376       -1.96559
C          3.44651        1.00936        0.31974
H          1.66558        0.01667        1.09569
H          2.42496       -0.77867       -0.29145
C          3.23234        2.40860        0.92312
H          7.32159        1.60743        2.45764
H          6.05796        2.55309        1.63067
C          1.60183        1.33367       -2.15416
H         -0.30647       -0.93390       -0.30135
H         -0.74329       -0.15236       -1.85450
C          0.11182       -0.45878       -1.21470
H          0.68552       -1.23552       -1.76418
H         -0.32204        1.41636        0.77632
C          0.10037        1.80854       -0.17340
H          0.63738        2.74818        0.06171
H         -0.75153        2.07114       -0.83656
C          4.38144        0.11507        1.18167
H          5.64868        1.57958        3.07846
H          3.92166        1.13549       -0.67858
C          5.93322        0.36081        1.26914
H          3.98450        0.10090        2.22398
H          4.26141       -0.92727        0.80892
C          6.25764        1.59429        2.14955
H          6.35240       -1.81221        1.39944
H          7.57432       -0.78508        2.22513
C          6.49417       -0.88646        1.99561
H          5.96765       -1.03050        2.96362
H          7.38795        0.31082       -2.73301
C          6.47026        0.51794       -0.19075
H          7.68789        1.98877       -2.17499
H          9.06874        0.88252       -2.48013
C          7.98056        0.45814       -0.60804
H          5.95813       -0.25207       -0.81365
H          6.07905        1.49225       -0.55989
C          8.03359        0.93725       -2.08096
H          9.91748        1.40178       -0.20499
H          8.51935        2.42816        0.23994
C          8.89337        1.38278        0.22672
H          8.99089        1.04167        1.27725
H          7.90205       -1.67823       -1.15595
C          8.53864       -0.98437       -0.56614
H          9.56069       -1.01912       -1.00151
H          8.60703       -1.38362        0.46392
