32
2,2,3,5-TETRAMETHYLHEXANE.gamout	Energy:    -394.0148836
C          1.66158        0.16524       -1.19029
C          2.46183        1.24605       -0.44357
C          3.56356        0.60045        0.43096
C          3.00843        2.29573       -1.42505
C          4.33558        1.57169        1.37369
C          4.32854        1.11798        2.88492
C          5.74694        1.85764        0.82302
C          4.97141       -0.27442        3.07235
C          5.09875        2.14347        3.74986
C          2.86919        1.08159        3.39920
H          1.21981       -0.57294       -0.48790
H          0.83193        0.60724       -1.78192
H          2.30992       -0.39681       -1.89848
H          1.75931        1.76694        0.25113
H          3.08209       -0.20580        1.02551
H          4.28238        0.07369       -0.23973
H          3.54131        3.11929       -0.90579
H          2.18998        2.75794       -2.01720
H          3.72015        1.83648       -2.14674
H          3.78522        2.54369        1.36932
H          6.26547        2.66616        1.37661
H          5.69496        2.17102       -0.23991
H          6.39148        0.95319        0.86045
H          4.95416       -0.56973        4.14316
H          4.43372       -1.06307        2.50535
H          6.03275       -0.29086        2.74633
H          4.98354        1.90868        4.82958
H          4.71525        3.17507        3.59152
H          6.18608        2.14909        3.53079
H          2.39248        2.08085        3.30501
H          2.24098        0.35395        2.84487
H          2.83630        0.79355        4.47158
