32
2,2,5-TRIMETHYLHEPTANE.gamout	Energy:    -394.0181403
C         -0.14527       53.32335       -0.57248
C          1.34639       53.09743       -0.29608
C          2.18291       54.35555        0.03887
C          1.68236       55.10682        1.30901
C          3.66770       53.96977        0.17627
C          0.76528       56.30695        1.01202
C          0.17794       57.08624        2.22516
C         -0.64900       58.26797        1.66808
C         -0.75139       56.17867        3.06199
C          1.29947       57.64723        3.12739
H         -0.64490       52.37425       -0.85980
H         -0.68243       53.71659        0.31582
H         -0.30212       54.04455       -1.40341
H          1.80322       52.60462       -1.18450
H          1.46109       52.37088        0.54240
H          2.09854       55.05453       -0.82773
H          1.16906       54.38029        1.97960
H          2.56588       55.46636        1.88048
H          4.30854       54.86339        0.33207
H          4.04133       53.44315       -0.72774
H          3.82501       53.29196        1.04412
H          1.33705       57.02997        0.38410
H         -0.08911       55.97554        0.38018
H         -1.11152       58.85926        2.48742
H         -0.01362       58.95765        1.07182
H         -1.46896       57.91205        1.00765
H         -1.23343       56.75160        3.88315
H         -0.20155       55.33533        3.53047
H         -1.56274       55.74592        2.43725
H          2.00560       58.28082        2.54827
H          0.87299       58.27628        3.93803
H          1.88897       56.84113        3.61214
