32
2,2,3-TRIMETHYLHEPTANE.gamout	Energy:    -394.0152926
C         99.08369       54.06654        1.41981
C         97.95015       54.11123        0.38858
C         97.07095       55.36785        0.49516
C         95.91011       55.40236       -0.51179
C         95.01843       56.68189       -0.43578
C         95.20568       57.66206       -1.65673
C         93.55076       56.29363       -0.17054
C         96.69081       58.07871       -1.76385
C         94.76815       57.00901       -2.98813
C         94.37607       58.94883       -1.43777
H         99.70949       53.15635        1.30908
H         99.75563       54.94578        1.31843
H         98.68886       54.07391        2.45858
H         97.30914       53.20624        0.49480
H         98.37807       54.05517       -0.63859
H         97.70974       56.27091        0.36354
H         96.66091       55.44241        1.52949
H         95.27533       54.50369       -0.34243
H         96.31751       55.26997       -1.53853
H         95.35926       57.25999        0.45538
H         92.88844       57.17443       -0.04862
H         93.47312       55.69821        0.76361
H         93.13399       55.66786       -0.98863
H         96.83396       58.80668       -2.59068
H         97.04136       58.56449       -0.82787
H         97.35951       57.21691       -1.96816
H         94.93952       57.70384       -3.83754
H         93.68882       56.74946       -2.98835
H         95.34015       56.08207       -3.20057
H         94.63315       59.43520       -0.47194
H         94.57722       59.68435       -2.24551
H         93.28441       58.75331       -1.43952
