26
2,2,3-TRIMETHYLPENTANE.gamout	Energy:    -315.4518478
C          3.22160        2.01868        2.64250
C          1.81968        1.81165        1.94394
C          4.17519        2.94943        1.85168
C          3.93420        0.70059        3.00563
C          1.95932        1.10180        0.57775
C          1.12534        3.17949        1.73469
C          0.89995        0.96493        2.85594
C          5.42641        3.39819        2.62260
H          2.99167        2.54128        3.60347
H          4.49265        2.44194        0.91228
H          3.62366        3.85876        1.53347
H          4.29467        0.16435        2.10136
H          4.81991        0.89320        3.64407
H          3.28034        0.00723        3.57012
H          2.40982        0.09253        0.68107
H          0.96408        0.97079        0.10182
H          2.58821        1.68320       -0.12825
H          0.07322        3.03440        1.40987
H          1.10745        3.76930        2.67649
H          1.62206        3.79577        0.95779
H          0.77328        1.43961        3.85291
H         -0.10888        0.86377        2.40239
H          1.28923       -0.06095        3.01498
H          6.09239        2.55000        2.88354
H          6.02801        4.11086        2.02057
H          5.15530        3.91274        3.57008
