29
2,2,3,4-TETRAMETHYLPENTANE.gamout	Energy:    -354.7288812
C          2.36414        2.88771        1.50816
C          3.73985        3.25968        2.20030
C          1.70451        1.52883        1.92812
C          1.34923        4.04812        1.52383
C          3.58360        3.83540        3.62801
C          4.67372        2.02793        2.26020
C          4.44750        4.33129        1.33047
C          0.73903        1.02431        0.83439
C          0.99411        1.52091        3.29601
H          2.64440        2.72968        0.43956
H          2.52339        0.77944        1.97856
H          0.47691        3.82092        0.87779
H          0.95776        4.25347        2.54132
H          1.79271        4.98988        1.14282
H          3.16905        3.09447        4.34080
H          4.57351        4.15104        4.02155
H          2.92459        4.72754        3.64560
H          5.69377        2.33318        2.57634
H          4.32319        1.26432        2.98465
H          4.76570        1.53716        1.26716
H          4.57119        3.98421        0.28222
H          3.88816        5.28909        1.30552
H          5.45876        4.55560        1.73151
H          1.24423        0.94207       -0.15117
H          0.34064        0.02067        1.09313
H         -0.13650        1.69691        0.70753
H          0.15646        2.24919        3.33022
H          0.56363        0.51805        3.50096
H          1.67879        1.75983        4.13389
