27
2,2,3-TRIMETHYL-3-PENTANOL.gamout	Energy:    -390.6155379
C          1.47080       -0.95889       -1.35892
C          1.12757       -0.21334       -0.05012
C          2.07003        1.00802        0.08988
C         -0.39146        0.28624       -0.02376
C         -1.39962       -0.89882       -0.02663
C         -2.87737       -0.49539        0.08296
O         -0.60502        1.07924        1.16239
C         -0.69589        1.24979       -1.18457
C          1.40702       -1.16258        1.14160
H          2.53592       -1.27478       -1.34837
H          0.86160       -1.87632       -1.49954
H          1.33138       -0.31599       -2.25172
H          2.04575        1.65454       -0.81043
H          1.77651        1.62509        0.96160
H          3.11922        0.67229        0.22706
H         -1.24495       -1.51692       -0.93777
H         -1.15780       -1.56600        0.83038
H         -3.03298        0.18551        0.94421
H         -3.24265        0.02503       -0.82607
H         -3.51843       -1.38942        0.22761
H         -0.48708        0.48384        1.92782
H         -0.65235        0.73666       -2.16529
H         -1.71114        1.67379       -1.06121
H          0.01419        2.09825       -1.19505
H          2.48577       -1.42172        1.17849
H          1.16261       -0.69070        2.11871
H          0.84607       -2.11642        1.06958
