32
2,2,4,4-TETRAMETHYLHEXANE.gamout	Energy:    -394.0058487
C         -1.95045        0.80329        1.78781
C         -0.66406        1.53653        1.38060
C          0.64194        0.69692        1.17068
C          1.83107        1.64560        1.48554
C          0.72061       -0.47929        2.17071
C          0.89456        0.23531       -0.30882
C         -0.06983       -0.60326       -1.21214
C          0.75969       -0.98293       -2.46667
C         -0.55238       -1.91425       -0.55227
C         -1.28919        0.21558       -1.69759
H         -2.79643        1.51911        1.85962
H         -2.25208        0.01530        1.06808
H         -1.85431        0.31844        2.78118
H         -0.45287        2.28526        2.17713
H         -0.84626        2.13626        0.46145
H          2.80776        1.15553        1.28597
H          1.78349        2.56567        0.86430
H          1.82111        1.95683        2.55180
H          1.68741       -1.01726        2.06871
H         -0.08792       -1.22178        2.03395
H          0.65910       -0.10922        3.21692
H          1.11923        1.16029       -0.88891
H          1.85688       -0.32596       -0.27908
H          0.13977       -1.53892       -3.20223
H          1.15658       -0.07896       -2.97631
H          1.62540       -1.62616       -2.20089
H         -1.08985       -2.54409       -1.29329
H         -1.25054       -1.73226        0.28925
H          0.30031       -2.51125       -0.16522
H         -0.97059        1.14753       -2.21187
H         -1.88611       -0.37686       -2.42381
H         -1.96729        0.50112       -0.87097
