32
2,2,3,3,4-PENTAMETHYLPENTANE.gamout	Energy:    -393.9983241
C          0.53719        3.56717        0.04882
C          1.72587        4.54283       -0.10581
C          3.19199        3.92619       -0.01307
C          1.44283        5.49124       -1.28842
C          3.74633        3.14979       -1.30867
C          4.14121        5.10258        0.33770
C          3.21125        2.98244        1.21852
C          2.69877        2.18244       -1.90586
C          4.99056        2.29572       -0.94069
C          4.20529        4.11224       -2.43538
H          0.64001        2.89852        0.92576
H         -0.39782        4.14913        0.19608
H          0.37853        2.93034       -0.84313
H          1.68740        5.18467        0.80643
H          2.24249        6.24358       -1.43774
H          0.50030        6.04915       -1.10295
H          1.30391        4.94357       -2.24425
H          5.19910        4.77318        0.39890
H          3.87631        5.52835        1.32922
H          4.09616        5.93337       -0.39449
H          2.68933        3.45939        2.07538
H          2.71744        2.00690        1.03160
H          4.24687        2.77042        1.55096
H          3.16576        1.55691       -2.69723
H          1.85161        2.71983       -2.37760
H          2.28410        1.48874       -1.14614
H          5.43636        1.87127       -1.86538
H          5.78334        2.89308       -0.44314
H          4.74246        1.44186       -0.27914
H          3.40302        4.78736       -2.78645
H          5.06511        4.73779       -2.12105
H          4.54079        3.51901       -3.31282
