15
2,2-DINITROPROPANE.gamout	Energy:    -527.7869870
C          1.01184        0.06466        0.06065
C          2.52122       -0.08858        0.11296
C          3.03679       -1.40065        0.67539
N          3.07921        0.14897       -1.33018
O          2.92402        1.27977       -1.77789
O          3.57743       -0.81066       -1.90515
N          3.16295        1.07561        0.93998
O          2.41418        1.75244        1.63324
O          4.38178        1.17761        0.85184
H          0.73446        1.05873       -0.33632
H          0.58878       -0.04383        1.07655
H          0.58477       -0.72330       -0.59185
H          2.69196       -1.51124        1.72324
H          4.14176       -1.42645        0.64909
H          2.64391       -2.24456        0.07840
