21
2,2-DIMETHYL-1-BUTANOL.gamout	Energy:    -312.0487543
C          0.00081        1.26489       -0.95042
C         -0.02768       -0.00000       -0.06471
C          1.22428        0.00000        0.84359
O          2.40078       -0.00000        0.04500
C         -1.26568       -0.00000        0.87728
C         -2.64339       -0.00000        0.20294
C          0.00081       -1.26490       -0.95041
H          0.95626        1.31827       -1.50926
H         -0.82841        1.27056       -1.68784
H         -0.08542        2.18732       -0.33596
H          1.18130        0.90045        1.50853
H          1.18129       -0.90043        1.50855
H          3.16808       -0.00004        0.64460
H         -1.19031       -0.88810        1.54630
H         -1.19031        0.88810        1.54630
H         -2.79634        0.89510       -0.43509
H         -2.79633       -0.89509       -0.43511
H         -3.45092       -0.00001        0.96437
H          0.95625       -1.31828       -1.50927
H         -0.08540       -2.18733       -0.33595
H         -0.82842       -1.27059       -1.68782
