29
2,2-DIMETHYLHEPTANE.gamout	Energy:    -354.7369125
C          4.50603        3.82263        1.10704
C          3.21740        3.57860        1.93111
C          2.64396        2.15399        1.82585
C          1.36045        1.93421        2.64222
C          0.78551        0.51893        2.50427
C          5.87708        3.70693        1.84232
C          6.03549        2.33898        2.54171
C          6.02426        4.83671        2.88604
C          6.99688        3.86219        0.78864
H          4.46637        4.84119        0.66007
H          4.51361        3.11994        0.24248
H          2.43054        4.28895        1.59191
H          3.39125        3.83019        3.00234
H          2.43553        1.92988        0.75338
H          3.40872        1.41141        2.14547
H          0.59455        2.68012        2.32787
H          1.56772        2.14948        3.71582
H          0.53417        0.28530        1.44710
H         -0.14111        0.38796        3.10160
H          1.51202       -0.24954        2.84629
H          7.03814        2.25091        3.01294
H          5.92949        1.49942        1.82191
H          5.28122        2.19728        3.34391
H          5.24766        4.78159        3.67837
H          5.94546        5.83674        2.40760
H          7.01216        4.78429        3.39199
H          8.00157        3.82208        1.26174
H          6.91741        4.83284        0.25305
H          6.95202        3.05511        0.02592
