32
2,2-DIMETHYL-3-ETHYLHEXANE.gamout	Energy:    -394.0134311
C          0.13594       -0.14298       -0.68924
C          0.93968        1.16228       -0.67847
C          2.17890        1.10977        0.23219
C          3.03067        2.41611        0.27100
C          2.86597        3.24281        1.60669
C          4.50738        2.11098       -0.08832
C          3.48779        2.50406        2.81359
C          3.54547        4.62527        1.45985
C          1.36628        3.49570        1.88900
C          4.71541        1.71999       -1.55771
H         -0.74779       -0.07884       -1.35836
H          0.75458       -0.99850       -1.03700
H         -0.23549       -0.39978        0.32647
H          0.28273        2.00239       -0.36118
H          1.26414        1.40965       -1.71511
H          2.81648        0.26115       -0.10406
H          1.85883        0.83116        1.26121
H          2.64274        3.08831       -0.53253
H          5.14234        2.99453        0.13430
H          4.88174        1.29305        0.56830
H          3.33369        3.08432        3.74847
H          3.02951        1.50418        2.96729
H          4.58128        2.35981        2.69135
H          3.35001        5.25629        2.35325
H          3.15883        5.17415        0.57387
H          4.64740        4.55113        1.35405
H          0.88180        4.03406        1.04608
H          0.80409        2.55468        2.05934
H          1.24073        4.12089        2.79873
H          5.78099        1.49449       -1.77260
H          4.12693        0.81969       -1.83485
H          4.40402        2.53911       -2.24142
