20
2,2-DIMETHYLBUTANE.gamout	Energy:    -236.8924790
C          3.21856        1.06166        2.77521
C          2.09940        1.88076        2.06365
C          1.97603        1.35948        0.61459
C          0.74426        1.68678        2.77975
C          2.45884        3.38289        2.03047
C          3.55234        1.44822        4.22186
H          4.14309        1.13388        2.15740
H          2.92674       -0.01312        2.74312
H          2.92633        1.49430        0.05467
H          1.72577        0.27699        0.59546
H          1.17918        1.89929        0.05980
H          0.75273        2.09636        3.81157
H          0.47672        0.61016        2.84542
H         -0.07235        2.20071        2.22899
H          2.47941        3.82474        3.04839
H          3.45547        3.54804        1.56783
H          1.71503        3.95618        1.43695
H          3.94276        2.48444        4.29734
H          2.66538        1.37723        4.88564
H          4.32859        0.77388        4.63933
