29
2,2-DIMETHYL-3-ETHYLPENTANE.gamout	Energy:    -354.7303294
C          3.48991        2.14068        2.59625
C          1.91686        2.17326        2.72210
C          4.08198        3.33334        1.78175
C          4.21359        2.00527        3.96034
C          1.27436        2.33907        1.32545
C          1.44073        3.32582        3.63489
C          1.40678        0.83155        3.30194
C          4.51462        2.99133        0.34933
C          5.65861        1.50155        3.84504
H          3.71528        1.20724        2.02529
H          4.96321        3.74264        2.32303
H          3.35229        4.17244        1.75627
H          3.65271        1.31128        4.62196
H          4.20784        2.99093        4.47907
H          0.16626        2.30824        1.40119
H          1.58296        1.52034        0.64056
H          1.54062        3.30277        0.84396
H          1.81104        3.21269        4.67485
H          0.33097        3.35383        3.68223
H          1.77795        4.31661        3.26249
H          0.29618        0.80824        3.31247
H          1.74438        0.66065        4.34510
H          1.75187       -0.02949        2.68969
H          4.92892        3.87816       -0.17565
H          3.66817        2.61236       -0.26054
H          5.30021        2.20520        0.34231
H          5.69890        0.48867        3.38881
H          6.14766        1.43587        4.83968
H          6.28595        2.16948        3.21669
