24
2,2-DIMETHYL-3-PENTANOL.gamout	Energy:    -351.3366143
C          1.35229        1.61595        0.46906
C          1.04829        0.17793       -0.00454
C          1.99433       -0.79783        0.73206
C         -0.42746       -0.21991        0.35468
C         -1.52957        0.66361       -0.26166
C         -2.93584        0.28617        0.22102
O         -0.67966       -1.60228        0.07380
C          1.29766        0.07449       -1.52523
H          2.42473        1.85493        0.30697
H          0.75963        2.37791       -0.07860
H          1.14508        1.73906        1.55405
H          1.88558       -0.70003        1.83357
H          1.76217       -1.84777        0.46662
H          3.05503       -0.59117        0.47656
H         -0.51122       -0.14882        1.46430
H         -1.32577        1.73100       -0.02971
H         -1.48082        0.57940       -1.37238
H         -3.03739        0.43469        1.31736
H         -3.71619        0.89920       -0.27514
H         -3.14633       -0.78239        0.01474
H         -0.68391       -1.69636       -0.89902
H          2.36269        0.28039       -1.76177
H          1.07977       -0.94644       -1.90936
H          0.68574        0.79781       -2.10388
