26
2,2-DIMETHYLHEXANE.gamout	Energy:    -315.4565949
C          3.42388        2.62778        2.43660
C          2.05676        1.88008        2.42805
C          4.65183        1.85816        1.92174
C          0.98339        2.84636        2.97913
C          2.10654        0.62679        3.33045
C          1.66555        1.46776        0.99083
C          5.97906        2.63651        2.03272
C          6.07712        3.87995        1.13790
H          3.29910        3.56263        1.84371
H          3.62777        2.95825        3.48253
H          4.75761        0.90799        2.49035
H          4.50010        1.56482        0.85774
H          0.90528        3.76313        2.35595
H         -0.01834        2.36587        2.99780
H          1.22337        3.16526        4.01626
H          2.41051        0.88704        4.36753
H          1.10942        0.14001        3.38723
H          2.82109       -0.13283        2.95007
H          1.63826        2.34861        0.31380
H          0.65773        1.00017        0.97341
H          2.37713        0.73275        0.56010
H          6.81379        1.94514        1.77969
H          6.14072        2.93019        3.09571
H          5.91869        3.62090        0.06831
H          5.32507        4.65173        1.40551
H          7.07640        4.35689        1.21819
