32
2,2-DIMETHYLOCTANE.gamout	Energy:    -394.0187630
C          0.62903        2.54631        1.15970
C          0.73642        1.64143        2.39445
C          2.04797        0.84010        2.50249
C          3.31502        1.68729        2.69781
C          4.58952        0.84920        2.90633
C          5.88617        1.67356        3.09520
C          6.80329        1.88083        1.84986
C          7.41892        0.53311        1.41008
C          7.94515        2.84043        2.24991
C          6.02161        2.49557        0.66799
H          0.74713        1.96337        0.22043
H          1.40169        3.34390        1.15121
H         -0.35856        3.05132        1.11379
H         -0.11519        0.92483        2.39173
H          0.60734        2.25407        3.31626
H          2.16637        0.20557        1.59266
H          1.96109        0.12596        3.35306
H          3.17418        2.35681        3.57857
H          3.45331        2.36647        1.82868
H          4.70690        0.14071        2.05506
H          4.43386        0.19983        3.79663
H          6.51455        1.20153        3.88312
H          5.61576        2.67673        3.49804
H          6.64194       -0.20181        1.11198
H          8.09533        0.66879        0.53924
H          8.01590        0.07878        2.22995
H          8.65095        2.99729        1.40640
H          8.52969        2.43986        3.10596
H          7.55047        3.83506        2.54946
H          5.21078        1.82276        0.31895
H          6.69335        2.67890       -0.19784
H          5.56153        3.46765        0.94671
