32
2,2-DIMETHYL-4-ETHYLHEXANE.gamout	Energy:    -394.0160890
C          3.26118        2.61412        2.22858
C          4.51101        2.98318        1.37772
C          1.97557        3.47688        2.03777
C          5.11648        1.74314        0.66558
C          5.54920        3.76886        2.21806
C          2.24701        4.97243        2.31057
C          0.91406        2.97385        3.04217
C          1.42210        3.30656        0.60525
C          5.71309        0.67054        1.58644
C          6.73311        4.33998        1.42798
H          3.53152        2.63740        3.30912
H          2.96987        1.55914        2.02209
H          4.18464        3.66627        0.55848
H          4.31557        1.28539        0.04185
H          5.89323        2.08161       -0.05572
H          5.02163        4.60266        2.72989
H          5.92547        3.11333        3.03663
H          2.63278        5.13248        3.34004
H          1.31410        5.56747        2.20745
H          2.98714        5.39626        1.59977
H         -0.03865        3.53617        2.93745
H          0.68680        1.89731        2.88603
H          1.26212        3.09444        4.09050
H          2.14010        3.66194       -0.16405
H          1.19395        2.24138        0.38541
H          0.48320        3.88498        0.46850
H          6.07211       -0.20248        1.00222
H          6.57946        1.05113        2.16757
H          4.96719        0.29160        2.31713
H          7.39680        4.94660        2.07908
H          7.36056        3.54448        0.97371
H          6.38854        4.99862        0.60100
