11
2,2-DICHLOROPROPANE.gamout	Energy:   -1038.0452953
C          2.09271        0.39056        1.61838
C          2.05685        1.91418        1.65038
C          0.99370        2.50179        2.57095
Cl         3.69603        2.52127        2.19596
Cl         1.75517        2.52395       -0.04961
H          2.29666       -0.00027        2.63653
H          2.88363        0.03266        0.93245
H          1.11393       -0.00031        1.27271
H          1.02238        3.60757        2.54642
H          1.17158        2.16148        3.61186
H         -0.01146        2.16151        2.24811
