20
2,2-DIMETHYLBUTANOIC_ACID.gamout	Energy:    -386.0503758
O          1.06844       -0.01496       -1.37040
O          1.29285       -0.66405        0.77905
C         -0.64224        0.70937        0.19879
C         -1.65718       -0.30391        0.81388
C         -0.30513        1.78088        1.26735
C         -1.20840        1.38916       -1.06263
C          0.66156       -0.06132       -0.07196
C         -2.04828       -1.48819       -0.07754
H         -1.21192       -0.68314        1.75813
H         -2.56466        0.27381        1.09888
H         -1.21973        2.34896        1.53713
H          0.10199        1.30778        2.18296
H          0.44631        2.50434        0.88813
H         -0.49628        2.13393       -1.47119
H         -2.15110        1.91950       -0.81150
H         -1.42380        0.66336       -1.87080
H         -2.74799       -2.16432        0.45595
H         -2.55302       -1.16664       -1.01211
H         -1.16384       -2.09699       -0.36165
H          1.90196       -0.53748       -1.39648
