32
2,3,3-TRIMETHYLHEPTANE.gamout	Energy:    -394.0140093
C         -0.26403       -0.04336        0.45000
C          0.62251        1.20100        0.31269
C          2.11521        0.87344        0.12912
C          2.98470        2.13250       -0.03133
C          4.53901        1.99635       -0.03472
C          5.11533        1.11518       -1.21273
C          5.10871        3.43000       -0.18724
C          5.02603        1.46179        1.33178
C          4.48436        1.43378       -2.58228
C          5.10654       -0.41038       -0.97977
H         -1.33280        0.22420        0.58537
H         -0.19416       -0.69154       -0.44999
H          0.03904       -0.65932        1.32384
H          0.49961        1.84744        1.21202
H          0.27375        1.81392       -0.54985
H          2.22378        0.21164       -0.75872
H          2.46272        0.27616        1.00192
H          2.72897        2.83036        0.80069
H          2.67108        2.66151       -0.95934
H          6.19143        1.40417       -1.28034
H          6.21850        3.42870       -0.13580
H          4.73637        4.09048        0.62452
H          4.81785        3.89924       -1.15057
H          4.60740        0.46670        1.58524
H          6.13361        1.37006        1.35348
H          4.73593        2.15852        2.14750
H          5.04737        0.93059       -3.39661
H          4.48188        2.51944       -2.81041
H          3.43497        1.07469       -2.64456
H          5.57442       -0.92627       -1.84535
H          5.68169       -0.70566       -0.07954
H          4.08116       -0.81968       -0.87326
