29
2,3,3,4-TETRAMETHYLPENTANE.gamout	Energy:    -354.7230143
C          3.65357        1.95400        2.42222
C          3.44052        3.47127        2.02255
C          2.05790        4.14234        2.40568
C          3.64690        3.58124        0.48990
C          4.56446        4.32360        2.66651
C          3.98869        1.66993        3.90303
C          2.54361        0.98657        1.96586
C          0.85204        3.79847        1.50515
C          1.64087        3.99544        3.88215
H          4.56929        1.66531        1.85217
H          2.24804        5.23040        2.24288
H          4.69433        3.32643        0.22259
H          2.98606        2.90324       -0.08660
H          3.45621        4.61554        0.13047
H          4.57420        5.34472        2.22928
H          4.44692        4.43715        3.76277
H          5.56410        3.87481        2.48319
H          3.13384        1.86558        4.58045
H          4.25746        0.59871        4.02323
H          4.85167        2.26021        4.27021
H          1.62230        1.09243        2.57644
H          2.26115        1.12134        0.90206
H          2.88401       -0.06447        2.08192
H          1.04859        3.98972        0.43140
H          0.53059        2.74280        1.60618
H         -0.01690        4.42938        1.79033
H          2.46046        4.23157        4.59042
H          0.80220        4.68645        4.11344
H          1.28152        2.96983        4.10958
