32
2,3,4,5-TETRAMETHYLHEXANE.gamout	Energy:    -394.0095128
C          0.79673       19.74646       -0.08059
C          1.40537       21.04165        0.49552
C          0.84235       22.37193       -0.11872
C          1.24725       21.04614        2.02942
C          1.59956       22.92621       -1.37589
C         -0.67399       22.29992       -0.38976
C          2.82953       23.84000       -1.05751
C          1.95130       21.85890       -2.42913
C          2.40972       25.16389       -0.39152
C          3.96623       23.17807       -0.25662
H          1.31364       18.85881        0.34218
H         -0.27904       19.64721        0.17625
H          0.88334       19.68355       -1.18312
H          2.49593       21.00994        0.28464
H          0.97037       23.14363        0.67360
H          1.78014       21.90258        2.49478
H          1.64950       20.11494        2.48212
H          0.17753       21.12027        2.32416
H          0.87508       23.61461       -1.87160
H         -1.07956       23.30724       -0.62177
H         -1.23718       21.91550        0.48701
H         -0.91569       21.64189       -1.25144
H          3.25339       24.10751       -2.05468
H          2.39635       22.33331       -3.32958
H          1.05318       21.30085       -2.76562
H          2.68513       21.11603       -2.05240
H          3.27300       25.85716       -0.30074
H          1.62309       25.68522       -0.97735
H          2.01447       25.00582        0.63547
H          4.84288       23.85780       -0.19601
H          4.31925       22.23210       -0.71765
H          3.65952       22.95370        0.78733
