21
2,3,3-TRIMETHYL-1-BUTENE.gamout	Energy:    -274.9446135
C          3.29626        2.28661        2.06628
C          1.77216        2.18660        1.83493
C          1.28712        3.41441        1.01871
C          1.38466        0.90928        1.06210
C          1.03593        2.16510        3.20142
C          3.80862        3.48729        2.83676
C          4.17135        1.36018        1.61476
H          0.19652        3.34020        0.82160
H          1.46089        4.36942        1.55585
H          1.80660        3.47543        0.03920
H          1.68448       -0.00859        1.60916
H          1.85234        0.87708        0.05601
H          0.28431        0.87008        0.92013
H         -0.05880        2.06032        3.04630
H          1.37629        1.31131        3.82405
H          1.19905        3.09669        3.78138
H          3.38768        3.53153        3.86443
H          4.91239        3.45838        2.92830
H          3.53720        4.44619        2.34475
H          3.86367        0.46648        1.05232
H          5.25259        1.47190        1.80072
