29
2,3,5-TRIMETHYLHEXANE.gamout	Energy:    -354.7371407
C          3.83806        1.93253        1.92494
C          2.63002        2.59049        2.63350
C          1.52023        3.07344        1.64474
C          2.05014        1.67573        3.72800
C          5.15748        1.87295        2.73230
C          1.94983        4.31756        0.84754
C          1.00189        1.97024        0.70284
C          6.16782        0.93753        2.04452
C          5.77280        3.26689        2.95037
H          4.04875        2.46432        0.96852
H          3.55387        0.89569        1.63363
H          2.99270        3.51530        3.13997
H          0.66355        3.38300        2.28850
H          2.81789        1.39225        4.47808
H          1.64749        0.73171        3.30137
H          1.22380        2.17535        4.27661
H          4.93267        1.43923        3.73505
H          2.27758        5.13833        1.52050
H          2.79055        4.09846        0.15395
H          1.11246        4.70523        0.22970
H          1.77373        1.66497       -0.03602
H          0.12079        2.32471        0.12754
H          0.69055        1.05922        1.25519
H          7.11059        0.85516        2.62558
H          6.43358        1.31339        1.03164
H          5.75665       -0.08670        1.92072
H          6.02840        3.73959        1.97635
H          6.70682        3.20713        3.54773
H          5.08249        3.95379        3.48240
