29
2,3,3-TRIMETHYLHEXANE.gamout	Energy:    -354.7311616
C          4.28843        3.34916        2.12269
C          2.73098        3.35559        2.03948
C          4.89574        2.15399        2.95948
C          4.79306        4.70445        2.66836
C          4.81021        3.22404        0.66838
C          1.90158        3.49015        3.32881
C          4.25730        0.79012        2.63318
C          4.93937        2.35564        4.48839
C          0.40451        3.67259        3.04242
H          2.39772        2.44082        1.49917
H          2.45322        4.20290        1.36906
H          5.96126        2.09630        2.63157
H          4.40678        4.93653        3.68147
H          5.90300        4.72513        2.72458
H          4.48076        5.53426        1.99847
H          5.91923        3.27892        0.63558
H          4.50698        2.26751        0.19330
H          4.41528        4.04540        0.03333
H          2.26789        4.35244        3.92850
H          2.03604        2.59255        3.97111
H          4.83748       -0.03288        3.10153
H          3.21980        0.71706        3.02342
H          4.22110        0.58319        1.54377
H          5.42358        1.47968        4.97063
H          5.52510        3.24941        4.78238
H          3.92882        2.45378        4.93484
H          0.21500        4.58754        2.44001
H         -0.00703        2.81338        2.46996
H         -0.18669        3.76277        3.97753
