32
2,3,4-TRIMETHYLHEPTANE.gamout	Energy:    -394.0098996
C          3.85979        2.92473        2.75367
C          2.83481        2.22431        1.80401
C          1.36842        2.78614        1.82047
C          2.78682        0.70000        2.04464
C          5.27534        2.27036        2.68615
C          3.98385        4.44162        2.50988
C          0.81502        3.04502        3.23473
C          1.12594        3.99519        0.89391
C          5.61484        1.31366        3.84293
C          7.01500        0.69680        3.73431
H          3.48585        2.78688        3.79569
H          3.21930        2.37578        0.76606
H          0.75350        1.96286        1.38882
H          2.42158        0.45949        3.06701
H          2.09810        0.21165        1.32379
H          3.77806        0.22044        1.92306
H          6.04375        3.07546        2.67821
H          5.40654        1.74305        1.71274
H          4.74914        4.88107        3.18413
H          4.29819        4.65766        1.46526
H          3.03816        4.98735        2.69462
H         -0.26925        3.28188        3.19440
H          0.93341        2.16286        3.89819
H          1.31761        3.90484        3.72614
H          1.59295        4.92900        1.26568
H          1.52325        3.80670       -0.12604
H          0.03694        4.19234        0.79483
H          5.52492        1.87068        4.80351
H          4.85542        0.50365        3.89748
H          7.23379        0.02264        4.58853
H          7.12322        0.10077        2.80266
H          7.80350        1.47968        3.71659
