32
2,3,3,5-TETRAMETHYLHEXANE.gamout	Energy:    -394.0120614
C          0.05069       35.86876       -0.11035
C          1.57229       35.83677        0.12987
C          2.22744       37.24211        0.00461
C          1.87219       35.21426        1.50730
C          2.86746       37.64528       -1.36332
C          3.32249       39.15571       -1.25823
C          4.10728       36.74825       -1.59487
C          1.88824       37.44518       -2.54076
C          4.31155       39.59532       -2.35661
C          2.15442       40.16015       -1.20849
H         -0.38682       34.84913       -0.05840
H         -0.45499       36.48696        0.66404
H         -0.21352       36.29455       -1.09921
H          2.02252       35.16477       -0.63714
H          1.47017       38.00190        0.29923
H          3.03821       37.32630        0.76296
H          2.96368       35.09481        1.67423
H          1.40258       34.21327        1.61359
H          1.47845       35.85549        2.32666
H          3.86622       39.23335       -0.28616
H          4.54705       36.89765       -2.60186
H          3.84291       35.67295       -1.51588
H          4.89924       36.95319       -0.84224
H          0.93302       37.98987       -2.39538
H          2.33341       37.79808       -3.49545
H          1.64212       36.37196       -2.68071
H          4.56927       40.66852       -2.23392
H          5.26332       39.02860       -2.33053
H          3.87782       39.48284       -3.37400
H          2.52889       41.17496       -0.95817
H          1.38721       39.90128       -0.45017
H          1.64139       40.23817       -2.19079
