15
2,3,4,5,6-PENTAFLUOROTOLUENE.gamout	Energy:    -767.1420013
C          6.35784        1.87571       -0.67480
C          7.26391        3.04114       -0.98358
C          6.85975        0.60465       -0.33561
C          4.95708        2.01902       -0.71507
F          8.18798        0.39962       -0.27937
C          6.01223       -0.48204       -0.04742
F          4.42721        3.21356       -1.03372
C          4.08395        0.95427       -0.43271
F          6.52257       -1.67776        0.27170
C          4.61792       -0.30432       -0.09673
F          2.75730        1.12660       -0.48067
F          3.80072       -1.32722        0.17471
H          8.32509        2.74414       -0.89997
H          7.08505        3.42272       -2.01018
H          7.07729        3.88355       -0.28573
