32
2,3,3,4-TETRAMETHYLHEXANE.gamout	Energy:    -394.0094274
C          0.72470       35.94572       -1.55818
C          0.84405       36.38450       -0.09166
C          1.95893       37.43032        0.17250
C          1.73156       38.27740        1.49167
C          3.34057       36.74829        0.10973
C          0.50137       39.25220        1.28696
C          1.46599       37.32217        2.68102
C          2.99963       39.10157        1.81968
C         -0.04603       39.85682        2.59548
C          0.77117       40.39038        0.28276
H         -0.08688       35.20014       -1.69238
H          0.49650       36.80650       -2.22314
H          1.65953       35.47846       -1.93431
H          1.02338       35.48821        0.54407
H         -0.13976       36.78871        0.23166
H          1.92845       38.15541       -0.67396
H          4.17598       37.47600        0.09422
H          3.43533       36.13601       -0.81064
H          3.50273       36.06493        0.97144
H         -0.32150       38.63248        0.86289
H          1.50078       37.86015        3.65022
H          2.23855       36.52609        2.72752
H          0.47607       36.82519        2.61263
H          3.37371       39.67259        0.94453
H          2.80014       39.83039        2.63358
H          3.82642       38.44982        2.16775
H         -0.89382       40.53966        2.37655
H         -0.42025       39.08896        3.30141
H          0.72263       40.45890        3.12757
H         -0.16801       40.93701        0.05407
H          1.17913       40.02782       -0.68300
H          1.48743       41.13487        0.69071
