21
2,3-DIMETHYL-1-PENTENE.gamout	Energy:    -274.9461507
C          2.08620        2.86210        3.10686
C          2.66518        2.10332        1.90124
C          4.86568        1.87988        3.14014
C          4.17896        1.88692        1.97687
C          4.88233        1.67824        0.65334
C          1.93871        0.74739        1.66884
C          0.45544        0.86136        1.29406
H          2.13694        2.25303        4.03461
H          1.02072        3.12319        2.94389
H          2.63956        3.80583        3.28924
H          2.48231        2.72572        0.99140
H          5.95348        1.69979        3.15797
H          4.38062        2.05178        4.11360
H          4.79094        2.58395        0.01249
H          4.43817        0.84168        0.06975
H          5.96056        1.46176        0.78936
H          2.46925        0.18896        0.86694
H          2.05391        0.13028        2.58876
H         -0.14753        1.33028        2.09911
H          0.01623       -0.13915        1.09837
H          0.31417        1.47020        0.37474
