13
2,3-PENTADIENE.gamout	Energy:    -195.1422597
C          2.08179        2.96648        1.97770
C          0.81781        2.42526        2.60801
C          3.08561        2.24007        1.51579
C          4.08854        1.51215        1.05439
C          5.29569        1.06731        1.84977
H          2.16135        4.06999        1.89911
H          0.68561        2.82087        3.63874
H         -0.07968        2.73505        2.02875
H          0.83023        1.31875        2.66044
H          4.05188        1.19339       -0.00738
H          5.36672       -0.04214        1.87991
H          6.23636        1.43480        1.38410
H          5.25713        1.43988        2.89232
