21
2,3-DIMETHYL-2-BUTANOL.gamout	Energy:    -312.0559621
C          1.36996        1.30748       -0.41510
C          0.62133        0.04073        0.04766
C          0.71862       -0.10643        1.57862
C         -0.85299        0.03259       -0.47416
C         -1.57233       -1.29505       -0.17382
C         -1.69110        1.23089        0.00378
O          1.22450       -1.10463       -0.58690
H          2.44537        1.23409       -0.14222
H          1.30475        1.41412       -1.51744
H          0.97634        2.23201        0.05449
H          0.22787        0.73375        2.11201
H          0.25728       -1.05532        1.91812
H          1.78414       -0.11728        1.89715
H         -0.75022        0.10711       -1.58147
H         -1.77857       -1.41446        0.91166
H         -2.55122       -1.33441       -0.69642
H         -0.96253       -2.15657       -0.50687
H         -1.24599        2.20634       -0.27978
H         -2.70562        1.19113       -0.44457
H         -1.82468        1.22611        1.10718
H          2.14644       -1.15249       -0.26967
