19
2,3-XYLENOL.gamout	Energy:    -385.8192777
C          1.27109        1.65783       -0.58584
C          1.93707        0.90239        0.41279
C          1.90272        2.91719       -1.13171
H          2.87942        3.11449       -0.65341
H          1.25465        3.80506       -0.96447
H          2.06713        2.84847       -2.22915
C          0.00921        1.20218       -1.05203
C         -0.55495        0.02117       -0.52225
C          0.11853       -0.71357        0.46523
C          1.36488       -0.27533        0.93500
C         -0.72407        1.98754       -2.11557
H         -0.12814        2.07084       -3.05054
H         -1.69173        1.51378       -2.37464
H         -0.93585        3.02826       -1.78630
H         -1.53416       -0.32087       -0.89301
H         -0.32603       -1.63389        0.87532
H          1.90409       -0.84460        1.71167
O          3.15461        1.35764        0.85162
H          3.48364        0.73891        1.53034
