23
2,3-DIMETHYLPENTANE.gamout	Energy:    -276.1719028
C          4.38949        2.63480        2.75862
C          3.28175        2.02599        1.84291
C          1.91553        2.72846        2.04003
C          3.14326        0.50280        2.03044
C          4.62596        4.13460        2.49000
C          5.73185        1.88565        2.64620
C          0.83278        2.36322        1.01370
H          4.03133        2.53048        3.81194
H          3.60103        2.21040        0.78680
H          1.54448        2.50994        3.06899
H          2.06107        3.82853        2.00299
H          2.91252        0.25277        3.08980
H          2.32415        0.09060        1.40713
H          4.06496       -0.04355        1.74807
H          5.43890        4.52620        3.13672
H          4.93171        4.30478        1.43407
H          3.72870        4.75536        2.68458
H          6.11294        1.90862        1.60101
H          6.50228        2.36254        3.28770
H          5.65867        0.82427        2.95564
H          0.57672        1.28336        1.02850
H         -0.10579        2.92203        1.21020
H          1.15768        2.61217       -0.01967
