17
2,3-DICHLORO-2-METHYLBUTANE.gamout	Energy:   -1116.6112475
C         41.01312       20.06059        0.02275
C         39.45908       20.07122        0.03376
C         38.85006       20.67193        1.30217
C         38.91826       20.74623       -1.23588
Cl        38.91648       18.30054       -0.05420
C         41.66643       21.43988       -0.07649
Cl        41.67904       19.21690        1.50413
H         41.33275       19.41940       -0.82284
H         37.74430       20.62891        1.25334
H         39.19163       20.12244        2.19958
H         39.14855       21.73714        1.40426
H         37.82460       20.58650       -1.30495
H         39.38505       20.32629       -2.14990
H         39.10389       21.84028       -1.21049
H         42.76843       21.33326       -0.06028
H         41.38689       21.94384       -1.02448
H         41.37434       22.09034        0.77215
