18
2,3-DIMETHYLBUTENE.gamout	Energy:    -235.6646799
C          3.17098        3.05012        0.49265
C          3.32112        4.57690        0.42391
C          3.91049        2.37978       -0.68927
C          1.72389        2.56061        0.59572
C          1.54598        1.10414        0.96584
C          0.65572        3.35927        0.37917
H          3.67618        2.70695        1.42856
H          2.81515        5.07870        1.27414
H          2.89324        4.98631       -0.51619
H          4.39326        4.86267        0.44845
H          3.43432        2.65463       -1.65466
H          3.91050        1.27331       -0.61538
H          4.97026        2.70918       -0.72796
H          1.97692        0.42649        0.19642
H          0.47725        0.83690        1.08566
H          2.07293        0.86768        1.91698
H         -0.37098        2.96645        0.46445
H          0.75904        4.42244        0.11413
