24
2,3-DIMETHYL-TRANS-3-HEXENE.gamout	Energy:    -314.2320518
C          0.81991        0.69731       -0.80604
C          2.17614        0.30398       -0.17259
C          3.17702       -0.13243       -1.25027
C          4.15823        0.69306       -1.69247
C          5.19470        0.44163       -2.75947
C          5.08273        1.41972       -3.94652
C          2.96794       -1.53928       -1.76579
C          2.67602        1.42077        0.75824
H          0.06468        0.92304       -0.02332
H          0.40569       -0.10989       -1.44477
H          0.93513        1.60193       -1.44071
H          1.98712       -0.59363        0.46397
H          4.22419        1.69797       -1.23590
H          5.14259       -0.60280       -3.13267
H          6.20780        0.55421       -2.30635
H          4.10997        1.30606       -4.46935
H          5.89207        1.24983       -4.68736
H          5.15447        2.47560       -3.60802
H          1.91548       -1.69991       -2.08745
H          3.16296       -2.28404       -0.96129
H          3.62039       -1.79159       -2.62336
H          2.78261        2.38861        0.22306
H          3.65986        1.17132        1.20659
H          1.95573        1.58856        1.58663
