29
2,3-DIMETHYL-3-ETHYLPENTANE.gamout	Energy:    -354.7263566
C          4.20556        4.11611        1.59533
C          2.90559        3.24308        1.82275
C          3.08697        1.92890        0.99313
C          1.64286        3.97503        1.24818
C          2.71799        2.90811        3.31839
C          4.07378        5.60216        1.98315
C          5.46878        3.54690        2.27317
C          2.08452        0.79468        1.24824
C          0.84703        4.91548        2.16786
H          4.38352        4.08917        0.49343
H          4.10894        1.52788        1.16718
H          3.05548        2.20728       -0.08548
H          0.93054        3.20117        0.88607
H          1.95518        4.52583        0.33170
H          3.51138        2.22496        3.68683
H          1.74496        2.40810        3.50312
H          2.74253        3.81880        3.95201
H          5.03000        6.13327        1.79008
H          3.84809        5.72815        3.06406
H          3.28937        6.13022        1.40589
H          6.37037        4.09507        1.92735
H          5.42724        3.65945        3.37772
H          5.63710        2.47298        2.05279
H          2.26290       -0.04637        0.54594
H          2.17030        0.38259        2.27510
H          1.03074        1.11676        1.10658
H          0.00504        5.37589        1.60849
H          0.40063        4.37649        3.02909
H          1.45604        5.74415        2.58006
