26
2,3-DIMETHYLHEXANE.gamout	Energy:    -315.4546231
C          1.66458        1.79949        0.11031
C          1.60187        0.31884       -0.31333
C          2.90252       -0.38699        0.11850
C          0.32406       -0.40554        0.21650
C         -0.97808        0.27007       -0.27833
C         -2.28006       -0.23894        0.36493
C         -3.52197        0.53441       -0.09866
C          0.32429       -1.90766       -0.12774
H          2.60606        2.27072       -0.24207
H          0.82808        2.40193       -0.29685
H          1.64171        1.89740        1.21835
H          1.55563        0.28451       -1.42915
H          2.99420       -1.40968       -0.29806
H          3.79119        0.18585       -0.22008
H          2.96382       -0.46709        1.22662
H          0.34380       -0.31174        1.33094
H         -0.92096        1.36409       -0.09155
H         -1.04317        0.15701       -1.38688
H         -2.42510       -1.31943        0.14519
H         -2.18915       -0.16583        1.47313
H         -3.43917        1.61671        0.14006
H         -3.66316        0.45126       -1.19780
H         -4.44615        0.15567        0.38554
H          1.18679       -2.44281        0.31647
H         -0.59010       -2.41072        0.24643
H          0.36184       -2.06354       -1.22898
