24
2,3-DIMETHYL-1-HEXENE.gamout	Energy:    -314.2254925
C          4.23288        0.69372        2.05052
C          4.42999        2.02624        1.31600
C          3.16215        2.71735        0.77688
C          2.16395        3.24454        1.83616
C          1.27473        4.36422        1.24322
C          1.26899        2.18921        2.50025
C          1.00357        2.40366        3.97275
C          0.69632        1.17329        1.81975
H          3.71265       -0.05000        1.41051
H          3.62542        0.80600        2.97162
H          5.21086        0.25852        2.34642
H          4.96482        2.73995        1.98476
H          5.11719        1.85982        0.45599
H          3.49046        3.58979        0.16874
H          2.63583        2.04726        0.05976
H          2.77250        3.71009        2.64775
H          0.55095        4.75136        1.99028
H          0.68925        3.98350        0.37967
H          1.88880        5.22103        0.89278
H          0.27247        1.67716        4.38004
H          0.61682        3.42906        4.16650
H          1.94508        2.31717        4.56088
H          0.01994        0.46024        2.31960
H          0.87663        1.01119        0.74470
