40
2,3-DIMETHYL-2,3-DIPHENYLBUTANE.gamout	Energy:    -698.6363252
C          4.47215        4.44427        1.92449
C          5.01657        4.71581        3.43410
C          5.56748        3.41050        4.06239
C          3.86043        5.16331        4.36435
C          6.12456        5.79690        3.41091
C          3.92090        5.74946        1.29633
C          5.62839        3.99714        0.99417
C          3.36446        3.36285        1.94761
C          7.49120        5.45568        3.26564
C          5.82156        7.17330        3.54472
C          3.66789        1.98658        1.81350
C          1.99774        3.70363        2.09312
C          8.49998        6.43388        3.24584
C          6.82518        8.15695        3.52498
C          2.66458        1.00262        1.83316
C          0.98926        2.72510        2.11281
C          8.17313        7.79346        3.37469
C          1.31653        1.36565        1.98369
H          6.35706        2.92103        3.45917
H          6.00181        3.62454        5.06091
H          4.75453        2.67041        4.19862
H          3.12214        4.34654        4.48685
H          4.25929        5.41411        5.36900
H          3.30642        6.05087        4.00030
H          3.48746        5.53558        0.29738
H          3.13052        6.23820        1.89910
H          4.73348        6.49012        1.16097
H          6.18314        3.11019        1.35860
H          5.22950        3.74546       -0.01024
H          6.36609        4.81436        0.87108
H          7.78183        4.40034        3.16696
H          4.77793        7.49428        3.67224
H          4.71162        1.66597        1.68589
H          1.70676        4.75885        2.19200
H          9.55197        6.12618        3.13246
H          6.54722        9.21767        3.63385
H          2.94284       -0.05800        1.72402
H         -0.06281        3.03241        2.22640
H          8.96187        8.56226        3.36336
H          0.52802        0.59660        1.99490
