18
2,3-DIMETHYL-2-BUTENE.gamout	Energy:    -235.6701930
C          1.94168        2.20362        2.01365
C          3.21402        2.11932        1.52317
C          4.19142        3.27657        1.49434
C          3.81574        0.85588        0.94360
C          0.96414        1.04649        2.04219
C          1.34008        3.46701        2.59345
H          4.52186        3.48415        0.45126
H          3.79385        4.21975        1.91176
H          5.11523        3.02157        2.06178
H          3.13165       -0.01218        0.93913
H          4.14909        1.02510       -0.10548
H          4.72852        0.55944        1.50883
H          0.63378        0.83850        3.08521
H          0.04031        1.30190        1.47498
H          1.36147        0.10343        1.62425
H          1.00542        3.29717        3.64200
H          2.02474        4.33462        2.59943
H          0.42813        3.76454        2.02743
