29
2,3-BENZOFLUORENE.gamout	Energy:    -654.5918391
C          4.63648        4.57734        1.07413
C          3.34883        5.28694        1.16276
C          5.68106        5.56055        0.93803
C          4.94216        3.22017        1.10290
C          3.59143        6.68685        1.08143
C          2.03461        4.80081        1.30510
C          5.07823        6.95434        0.93439
C          7.00470        5.17359        0.83389
C          6.30088        2.79288        0.99777
C          2.52690        7.59606        1.14130
C          0.97202        5.71848        1.36573
C          7.35080        3.78451        0.86118
C          6.66528        1.41029        1.02351
C          1.21409        7.10516        1.28447
C          8.70425        3.34295        0.75744
C          7.99335        1.01598        0.92073
C          9.02253        1.99029        0.78628
H          4.14988        2.46070        1.20669
H          1.83772        3.71858        1.36846
H          5.47151        7.57992        1.76755
H          5.31292        7.50484       -0.00458
H          7.80889        5.92124        0.72946
H          2.70970        8.68137        1.07880
H         -0.06072        5.35152        1.47797
H          5.86807        0.65587        1.12762
H          0.36904        7.81026        1.33350
H          9.49938        4.09961        0.65356
H          8.25297       -0.05439        0.94308
H         10.07321        1.66963        0.70490
