16
2,3-DIMETHYL-1,3-BUTADIENE.gamout	Energy:    -234.4436097
C          1.81548        2.19633        1.22752
C          3.28090        2.12424        0.98051
C          3.97119        0.78327        1.12074
C          3.99788        3.22620        0.63679
C          1.12516        3.53726        1.08707
C          1.09861        1.09447        1.57177
H          5.05527        0.86942        0.91083
H          3.85351        0.37109        2.14595
H          3.54719        0.03145        0.42075
H          5.08292        3.16194        0.45564
H          3.53983        4.22006        0.52361
H          1.24324        3.94953        0.06195
H          0.04099        3.45103        1.29652
H          1.54885        4.28905        1.78728
H          1.55674        0.10071        1.68539
H          0.01355        1.15870        1.75280
