24
2,3-DIMETHYL-2-HEXENE.gamout	Energy:    -314.2336099
C          4.04295        3.16985        3.08115
C          2.99127        2.91985        2.00749
C          2.02487        1.95726        2.09949
C          3.11467        3.87459        0.83655
C          5.46045        2.63999        2.74481
C          1.88504        1.00802        3.27266
C          0.95917        1.72289        1.04964
C          5.56280        1.11240        2.66595
H          4.11975        4.27092        3.23608
H          3.72776        2.75016        4.05869
H          2.85907        4.91296        1.14977
H          2.47300        3.61856       -0.02633
H          4.16239        3.91690        0.46580
H          6.16537        3.01907        3.51829
H          5.80243        3.08393        1.78271
H          0.87783        1.10587        3.73825
H          1.96228       -0.04944        2.93256
H          2.63995        1.15588        4.06569
H         -0.05643        1.84823        1.48974
H          0.99917        0.67606        0.67177
H          1.02549        2.39764        0.17641
H          4.87778        0.70033        1.89529
H          5.29791        0.63634        3.63494
H          6.59302        0.78801        2.40936
