32
2,3-DIMETHYLOCTANE.gamout	Energy:    -394.0174973
C          4.28023        2.20577        2.87605
C          4.81686        2.08816        4.32809
C          5.88672        0.97204        4.52110
C          3.65286        1.97357        5.33390
C          3.57452        0.96413        2.30251
C          6.44569        0.94171        5.95720
C          7.04917        1.09590        3.51671
C          3.03643        1.15590        0.86919
C          1.85985        2.14008        0.70961
C          0.56975        1.71175        1.42419
H          5.11038        2.49032        2.19219
H          3.57988        3.07116        2.85404
H          5.33623        3.05426        4.54005
H          5.38689       -0.00931        4.33979
H          3.13724        0.99176        5.26026
H          3.99399        2.08854        6.38210
H          2.89531        2.76414        5.14901
H          4.28118        0.10478        2.29632
H          2.74197        0.65696        2.97310
H          6.89988        1.92016        6.22970
H          7.23885        0.17067        6.05421
H          5.66843        0.70929        6.71234
H          7.54811        2.08628        3.60530
H          7.81790        0.31775        3.70615
H          6.71818        0.98169        2.46465
H          3.87448        1.48863        0.21464
H          2.72171        0.16488        0.46931
H          2.16047        3.15359        1.05861
H          1.64972        2.25656       -0.37699
H         -0.25880        2.42271        1.22406
H          0.23734        0.70757        1.08288
H          0.69917        1.66093        2.52567
