21
2,4,6-TRINITROTOLUENE.gamout	Energy:    -884.4673249
O          6.67926        4.13865       -0.74987
N          7.16306        3.03993       -1.01902
O          8.24396        2.84545       -1.57716
C          6.34218        1.83992       -0.67084
C          6.95396        0.61107       -0.29619
C          4.95672        2.02966       -0.75363
C          8.44534        0.45105       -0.14677
C          6.03187       -0.43839       -0.02654
C          4.12149        0.94583       -0.47692
N          6.50370       -1.80595        0.34937
C          4.64016       -0.29278       -0.09563
N          2.64323        1.11939       -0.57793
O          5.78430       -2.44940        1.11230
O          7.55584       -2.20102       -0.15503
O          2.23447        2.22880       -0.91930
O          1.94736        0.13972       -0.31252
H          4.53877        3.00843       -1.02455
H          8.92663        1.40902        0.11666
H          8.69408       -0.32004        0.60303
H          8.89032        0.12089       -1.10802
H          3.97455       -1.13177        0.14760
