13
2,4,6-TRICHLOROPHENOL.gamout	Energy:   -1685.7444434
Cl         1.30609       -2.68265       -0.00009
Cl         1.26540        2.73953        0.00020
Cl        -3.45931       -0.02929       -0.00020
O          2.47671        0.02601        0.00010
C          1.12842        0.03299        0.00002
C          0.40837       -1.18837       -0.00003
C          0.36417        1.22682        0.00008
C         -0.99519       -1.21204       -0.00012
C         -1.03721        1.23328       -0.00000
C         -1.70859       -0.00082       -0.00010
H         -1.52280       -2.17513       -0.00021
H         -1.59092        2.18143        0.00001
H          2.76672        0.96690        0.00019
