20
2,4,6-TRIMETHYLPYRIDINE.gamout	Energy:    -365.9701726
C          1.97962       -0.60935        0.00099
N          2.06650       -1.95484        0.02514
C          3.11885        0.21410       -0.12330
C          0.59068       -0.02324        0.11951
C          5.63707        0.47952       -0.39574
C          4.39739       -0.36787       -0.23014
C          3.28138       -2.53261       -0.07275
C          4.46490       -1.77474       -0.20006
C          3.30857       -4.04409       -0.03514
H          3.00637        1.31076       -0.13482
H          0.12383       -0.32568        1.08068
H          0.59651        1.08287        0.06259
H         -0.06269       -0.41863       -0.68611
H          5.52259        1.46985        0.08935
H          6.53234       -0.01681        0.03053
H          5.84740        0.66459       -1.47222
H          5.44031       -2.28346       -0.27317
H          2.85049       -4.41294        0.90659
H          2.69929       -4.45937       -0.86519
H          4.33658       -4.44912       -0.11199
