24
2,4,4-TRIMETHYL-1-PENTENE.gamout	Energy:    -314.2286294
C          3.12828        1.00543        2.86601
C          1.81843        1.81467        3.17170
C          4.19602        1.67693        2.01445
C          2.12565        3.17433        3.83402
C          0.96465        0.96271        4.13779
C          1.02040        2.05434        1.87243
C          5.29529        2.42099        2.74108
C          4.19440        1.57262        0.66581
H          3.57751        0.70810        3.84055
H          2.81183        0.06159        2.37032
H          1.18376        3.69066        4.11832
H          2.67513        3.84971        3.14588
H          2.72988        3.05490        4.75906
H          1.48935        0.79615        5.10297
H         -0.00212        1.46246        4.36022
H          0.73574       -0.03345        3.70247
H          1.60496        2.64712        1.13906
H          0.08224        2.60984        2.08629
H          0.73870        1.09539        1.38686
H          4.89327        3.21195        3.40899
H          5.86567        1.72721        3.39925
H          6.01146        2.89063        2.03758
H          4.96949        2.05782        0.04925
H          3.42429        0.99074        0.13298
