29
2,4,4-TRIMETHYLHEXANE.gamout	Energy:    -354.7283191
C          3.13805        2.70967        2.63080
C          4.30337        2.01790        1.84930
C          1.87039        1.96188        3.14325
C          5.19178        1.09793        2.74525
C          3.79797        1.17163        0.65921
C          5.17908        3.15685        1.26623
C          2.13115        0.73267        4.03404
C          0.83951        1.63348        2.04450
C          5.85294        1.73319        3.97534
H          3.59995        3.22122        3.50449
H          2.76679        3.53821        1.98420
H          1.37757        2.71614        3.80147
H          5.99145        0.68128        2.09001
H          4.59262        0.22041        3.06632
H          3.11546        1.75400        0.00525
H          4.65430        0.83710        0.03460
H          3.25835        0.25998        0.98926
H          4.61060        3.73968        0.51068
H          6.08481        2.75007        0.76708
H          5.51690        3.87147        2.04601
H          1.18983        0.40156        4.52254
H          2.51368       -0.13348        3.45417
H          2.86336        0.95068        4.83912
H         -0.12591        1.31812        2.49504
H          1.17577        0.80906        1.38430
H          0.63369        2.51580        1.40213
H          6.50846        2.58755        3.70602
H          6.48797        0.99049        4.50245
H          5.11213        2.10463        4.71412
