15
2,4-DIMETHYLTHIOPHENE.gamout	Energy:    -631.3872368
C         -4.98075       -0.73109       -1.28492
C         -5.19963       -1.88453       -2.23110
C         -3.68786       -0.17726       -0.97295
C         -5.98819       -0.06769       -0.60524
C         -3.71805        0.87887       -0.07924
S         -5.37144        1.21200        0.39975
C         -2.57416        1.68694        0.46392
H         -4.82386       -1.64991       -3.25054
H         -4.66299       -2.79667       -1.89122
H         -6.27424       -2.13991       -2.31904
H         -2.74778       -0.55531       -1.40453
H         -7.06831       -0.26240       -0.64007
H         -1.61822        1.31811        0.04145
H         -2.66377        2.76436        0.20641
H         -2.50227        1.61962        1.57091
