24
2,4-DIMETHYL-CIS-3-HEXENE.gamout	Energy:    -314.2338079
C          0.36625       19.78567       -0.06516
C          0.96001       20.88880        0.83531
C          0.95828       22.27060        0.20117
C          2.05160       22.85662       -0.34750
C         -0.37594       22.98678        0.20090
C          3.46445       22.32769       -0.46083
C          3.87149       22.19253       -1.94536
C          4.45032       23.24555        0.29528
H          0.35858       18.80564        0.45660
H         -0.67984       20.01179       -0.36066
H          0.95638       19.66920       -0.99792
H          1.99076       20.59901        1.12917
H          0.37136       20.93419        1.78002
H          1.91673       23.86788       -0.78237
H         -0.74027       23.15872        1.23911
H         -0.31460       23.96921       -0.30869
H         -1.16426       22.38910       -0.30906
H          3.52102       21.31571       -0.00208
H          4.91036       21.81152       -2.04570
H          3.19731       21.49914       -2.48928
H          3.82530       23.17728       -2.46001
H          5.49379       22.87390        0.20896
H          4.19630       23.31039        1.37355
H          4.42721       24.27805       -0.11689
