32
2,4-DIMETHYLOCTANE.gamout	Energy:    -394.0223823
C          0.77593       18.14154        0.03673
C          1.80261       19.28095        0.04797
C          1.16522       20.67951        0.01879
C          2.18748       21.82740        0.03152
C          1.60091       23.25445       -0.10060
C          0.72898       23.62716        1.12085
C          2.72801       24.27251       -0.34748
C         -0.00824       24.98614        1.08458
C         -0.97726       25.10370       -0.10449
C         -0.74411       25.22596        2.41482
H          1.26407       17.14496        0.05798
H          0.09856       18.19998        0.91567
H          0.13798       18.18131       -0.87233
H          2.49030       19.17320       -0.82187
H          2.44980       19.19243        0.95036
H          0.47382       20.77630        0.88584
H          0.52225       20.77042       -0.88784
H          2.90874       21.66777       -0.80237
H          2.79516       21.77289        0.96585
H          0.94420       23.24943       -1.00290
H         -0.03641       22.83189        1.27000
H          1.37260       23.59804        2.03182
H          2.34094       25.29407       -0.54213
H          3.34299       23.98047       -1.22473
H          3.41036       24.33780        0.52906
H          0.75425       25.79214        0.97720
H         -1.51078       26.07773       -0.09189
H         -0.45597       25.02793       -1.08133
H         -1.74971       24.30314       -0.07644
H         -1.24537       26.21672        2.43091
H         -0.04887       25.18562        3.28014
H         -1.52680       24.45344        2.58204
