26
2,4-DIMETHYLHEXANE.gamout	Energy:    -315.4530903
C          4.56280        2.75609        2.18240
C          3.33693        1.92261        1.72724
C          2.05322        2.78894        1.80987
C          3.15421        0.60142        2.49716
C          5.97998        2.28883        1.75753
C          0.81775        2.20500        1.11295
C          6.55325        1.13440        2.60111
C          6.95833        3.48007        1.78796
H          4.42238        3.77831        1.76474
H          4.53498        2.88686        3.29086
H          3.49011        1.67262        0.64887
H          1.82292        2.98466        2.88331
H          2.27463        3.78577        1.36622
H          3.03129        0.79465        3.58559
H          2.25492        0.05055        2.15230
H          4.01529       -0.08363        2.37470
H          5.90955        1.94165        0.69908
H          0.47998        1.25230        1.57184
H         -0.03902        2.90912        1.16160
H          1.01927        2.00214        0.03877
H          7.57748        0.86853        2.26318
H          6.62234        1.42630        3.67209
H          5.94116        0.21370        2.54551
H          7.05246        3.89049        2.81755
H          7.97480        3.17844        1.45769
H          6.62047        4.30768        1.12892
