19
2,4-DIMETHYL-1,3-PENTADIENE.gamout	Energy:    -273.7278425
C          3.09271        1.31066        0.68589
C          4.43386        1.91385        0.84787
C          1.86744        1.86435        0.90878
C          5.47628        1.01217        1.47874
C          4.74626        3.16652        0.42892
C          0.60957        1.06109        0.67512
C          1.64311        3.26818        1.41754
H          3.10278        0.24357        0.38704
H          5.18246        0.72192        2.51131
H          5.58083        0.06400        0.90592
H          6.47159        1.49740        1.52306
H          5.76025        3.57811        0.56525
H          4.01174        3.80497       -0.08523
H         -0.05538        1.56568       -0.06219
H          0.82274        0.04015        0.29936
H          0.01387        0.96970        1.61150
H          2.56825        3.72811        1.81516
H          1.25796        3.93206        0.61029
H          0.86843        3.27465        2.21611
