32
2,4-DIMETHYL-3-ISOPROPYLPENTANE.gamout	Energy:    -394.0075075
C          0.64732       28.79936       -0.55011
C          1.47973       29.82063        0.24940
C          1.06569       31.32561        0.10217
C          1.50824       29.40450        1.73478
C          1.76067       32.08112       -1.08301
C         -0.47321       31.59770        0.23129
C          3.19731       32.49252       -0.70113
C          1.78407       31.35373       -2.44193
C         -0.73389       32.96108        0.90251
C         -1.29581       31.50272       -1.06953
H          0.62437       29.01461       -1.63615
H          1.06994       27.77943       -0.42648
H         -0.40327       28.75577       -0.19094
H          2.52880       29.74795       -0.12142
H          1.49576       31.80790        1.00925
H          2.19362       30.04520        2.32869
H          1.84408       28.35237        1.85299
H          0.49797       29.47924        2.19306
H          1.18969       33.02784       -1.22567
H         -0.87331       30.82161        0.92488
H          3.68278       33.06926       -1.51713
H          3.21471       33.12312        0.21260
H          3.83752       31.60428       -0.50440
H          2.23573       32.00775       -3.21816
H          0.77578       31.06897       -2.80033
H          2.40312       30.43227       -2.40010
H         -1.82158       33.14410        1.03489
H         -0.25789       33.02700        1.90373
H         -0.33549       33.79883        0.28867
H         -2.37665       31.63755       -0.85013
H         -1.18489       30.52579       -1.57846
H         -1.01570       32.29756       -1.79344
