13
2,4-DICHLOROPHENOL.gamout	Energy:   -1226.2427070
Cl         2.01852       -1.94243       -0.00011
Cl        -3.26484       -0.58565       -0.00010
O          2.46948        0.95640        0.00010
C          1.14651        0.64747        0.00009
C          0.77139       -0.72096       -0.00008
C          0.12243        1.61717        0.00010
C         -0.57954       -1.09942       -0.00010
C         -1.23314        1.25288        0.00009
C         -1.57775       -0.10873       -0.00008
H          0.39659        2.68598        0.00020
H         -0.84434       -2.16544       -0.00019
H         -2.01882        2.02173        0.00009
H          2.56129        1.92858        0.00021
