21
2,4-DIMETHYL-1-PENTENE.gamout	Energy:    -274.9472025
C          3.31039        1.78336        1.00635
C          2.00289        1.90396        1.83790
C          4.42366        2.74840        1.39895
C          0.93577        0.93792        1.29692
C          2.23378        1.69005        3.34234
C          5.56223        2.18162        2.21490
C          4.39079        4.04610        1.02401
H          3.68087        0.73543        1.08245
H          3.04949        1.94251       -0.06300
H          1.62788        2.94493        1.70013
H          0.73623        1.10820        0.21772
H         -0.02676        1.05158        1.83902
H          1.25990       -0.11975        1.41308
H          1.28392        1.78131        3.91064
H          2.64578        0.67684        3.54565
H          2.94098        2.43674        3.75877
H          6.30387        2.95624        2.49640
H          6.09408        1.38768        1.64393
H          5.19565        1.69718        3.14637
H          3.56985        4.44740        0.40591
H          5.18378        4.75262        1.32005
