23
2,4-DIMETHYLPENTANE.gamout	Energy:    -276.1711646
C          3.48580        3.46463        2.27677
C          2.03153        3.94324        2.01976
C          3.90026        2.05168        1.77984
C          1.72346        4.10031        0.51819
C          0.94287        3.10792        2.71894
C          5.39570        2.02504        1.40972
C          3.59085        0.93935        2.79982
H          3.70180        3.53416        3.36818
H          4.15560        4.21161        1.79397
H          1.98104        4.96478        2.46406
H          3.32605        1.83225        0.84996
H          1.71461        3.11952       -0.00506
H          2.47514        4.74258        0.01215
H          0.72590        4.56191        0.36109
H         -0.04802        3.60194        2.62845
H          1.15390        2.97804        3.80137
H          0.84171        2.09677        2.26980
H          5.71046        1.01977        1.05726
H          6.02681        2.28285        2.28875
H          5.63156        2.75379        0.60558
H          3.86345       -0.05955        2.39724
H          2.51936        0.90472        3.07783
H          4.17353        1.09050        3.73515
