24
2,4-DIMETHYL-1-HEXENE.gamout	Energy:    -314.2282110
C         -0.26244       19.13657       -0.14964
C          1.03436       19.79479        0.34099
C          1.22278       21.28879       -0.02376
C          0.41324       22.25941        0.88251
C          2.71366       21.67000        0.03416
C         -1.10272       22.22373        0.80079
C         -1.86432       21.96585        1.88733
C         -1.71636       22.55813       -0.53973
H         -0.28216       18.05641        0.10714
H         -1.16207       19.60151        0.30077
H         -0.35767       19.21191       -1.25466
H          1.89600       19.22720       -0.07754
H          1.11572       19.68519        1.44768
H          0.88507       21.42951       -1.07815
H          0.72787       22.09376        1.93712
H          0.73316       23.29661        0.62268
H          2.87771       22.73211       -0.24612
H          3.31961       21.04249       -0.65256
H          3.12332       21.53155        1.05905
H         -2.96580       21.97830        1.83578
H         -1.40928       21.73607        2.86505
H         -1.35164       23.54330       -0.90663
H         -1.43362       21.81313       -1.31537
H         -2.82302       22.59372       -0.49311
