22
2,4-DIMETHYL-3-PENTANONE.gamout	Energy:    -350.1306242
C          1.28418        0.11108       -0.05772
C          0.38610        0.14579        1.20354
C         -0.07203        1.45836        1.88464
O          0.02706       -0.92015        1.68946
C          0.98830        1.15381       -1.14946
C          2.77360        0.11870        0.36103
C          1.01953        2.52013        2.11075
C         -1.31040        2.04418        1.16560
H          1.07330       -0.89869       -0.47180
H         -0.41912        1.09960        2.87761
H          1.15192        2.19441       -0.80241
H         -0.05308        1.07768       -1.52377
H          1.66296        0.98988       -2.01636
H          3.08557        1.09587        0.78326
H          3.41735       -0.08417       -0.52069
H          2.97842       -0.66551        1.11808
H          1.40326        2.94749        1.16156
H          1.88247        2.11465        2.67769
H          0.60409        3.36422        2.70111
H         -1.05248        2.50058        0.18871
H         -1.77133        2.83740        1.79147
H         -2.07961        1.26402        0.99169
