29
2,4-DIMETHYL-3-ETHYLPENTANE.gamout	Energy:    -354.7294452
C          4.56280        0.98489        2.50124
C          3.46586        2.01656        2.06956
C          2.16745        1.89256        2.95067
C          4.02272        3.45362        1.91737
C          5.66743        0.82145        1.44068
C          5.18000        1.24446        3.88818
C          2.07355        2.89081        4.12139
C          0.87876        1.93556        2.10528
C          3.16386        4.41686        1.08385
H          4.03380        0.00445        2.55896
H          3.16941        1.68980        1.04455
H          2.20399        0.87391        3.40329
H          5.02298        3.38837        1.43701
H          4.20873        3.90248        2.91743
H          6.33347       -0.03159        1.69085
H          5.24265        0.62914        0.43234
H          6.31418        1.72187        1.36469
H          5.72087        2.21436        3.92400
H          5.91510        0.45221        4.14448
H          4.41576        1.25240        4.69167
H          1.20427        2.64873        4.76935
H          1.93260        3.93418        3.76802
H          2.97768        2.87537        4.76247
H         -0.01895        1.75955        2.73623
H          0.88502        1.16020        1.31006
H          0.74314        2.91900        1.60831
H          3.66980        5.39771        0.96155
H          2.97368        4.01206        0.06644
H          2.17595        4.61593        1.54773
