21
2,4-DIMETHYL-2-PENTENE.gamout	Energy:    -274.9529352
C          3.23669        2.44009        1.45457
C          1.87776        1.85156        1.76237
C          4.46881        1.92150        1.68476
C          1.07783        1.63430        0.45888
C          1.09717        2.75957        2.73772
C          4.72945        0.58327        2.33672
C          5.71324        2.68277        1.28296
H          3.19610        3.43599        0.96877
H          2.00676        0.86083        2.25176
H          0.93109        2.59677       -0.07841
H          0.07180        1.21083        0.66660
H          1.60542        0.94387       -0.23109
H          0.94571        3.77177        2.30292
H          0.09335        2.33954        2.96223
H          1.63892        2.88635        3.69770
H          5.30906       -0.08212        1.65793
H          3.80507        0.04706        2.62582
H          5.35136        0.70356        3.25246
H          6.36725        2.88474        2.16146
H          6.33135        2.09309        0.56851
H          5.46983        3.65339        0.80617
