15
2,4-DICHLOROTOLUENE.gamout	Energy:   -1190.3638204
Cl         7.34664        3.27015       -0.82104
C          6.30910        1.87340       -0.57848
C          6.89530        0.60640       -0.34072
C          4.91844        2.06581       -0.62937
C          8.39033        0.41934       -0.28994
C          6.00537       -0.47325       -0.15350
C          4.07636        0.95802       -0.43670
C          4.61115       -0.31870       -0.19756
Cl         2.33928        1.18068       -0.49630
H          4.50182        3.06477       -0.81597
H          8.86897        0.72673       -1.24408
H          8.84829        1.04300        0.50700
H          8.65232       -0.63916       -0.09602
H          6.42519       -1.47497        0.03398
H          3.94134       -1.17752       -0.04829
