32
2,4-DIMETHYL-3-ETHYLHEXANE.gamout	Energy:    -394.0079294
C          0.10284       20.22572       -1.00876
C          1.35575       20.86090       -0.39392
C          1.24945       22.33316        0.08823
C          0.42398       22.61495        1.40818
C          2.67229       22.90961        0.24364
C         -0.90467       23.40690        1.18545
C          0.25968       21.37309        2.31814
C         -0.64782       24.80693        0.59529
C         -1.97999       22.66746        0.37269
C         -0.28304       21.66214        3.72481
H          0.32423       19.20577       -1.38845
H         -0.73037       20.13172       -0.28369
H         -0.27620       20.81949       -1.86850
H          2.16006       20.83488       -1.16331
H          1.73119       20.21984        0.43399
H          0.76032       22.89623       -0.74005
H          1.05304       23.31894        2.00289
H          2.65144       23.99091        0.49435
H          3.27339       22.79310       -0.68374
H          3.22172       22.39040        1.06023
H         -1.32703       23.57388        2.20265
H         -0.38383       20.61044        1.82725
H          1.25766       20.89411        2.42406
H         -1.58439       25.40273        0.56247
H          0.08985       25.37692        1.19950
H         -0.25980       24.75458       -0.44502
H         -2.92023       23.25794        0.34080
H         -2.23169       21.67708        0.80628
H         -1.66160       22.50331       -0.67828
H         -0.24622       20.75222        4.35972
H          0.31360       22.44769        4.23799
H         -1.33887       22.00478        3.71371
