19
2,4-XYLENOL.gamout	Energy:    -385.8201344
C          3.33381        5.41169        0.67762
C          3.32653        3.90789        0.80417
C          4.55568        3.20842        0.93195
C          2.13980        3.15478        0.80131
O          5.70228        3.95950        0.93323
C          4.56504        1.80719        1.05032
C          2.12073        1.74518        0.91891
C          3.35823        1.08597        1.04348
C          0.81155        0.98495        0.90706
H          2.30431        5.81062        0.58604
H          3.81522        5.88966        1.55776
H          3.91591        5.73915       -0.21034
H          1.18321        3.69709        0.70227
H          6.46365        3.35628        1.02776
H          5.52686        1.27411        1.14968
H          3.38660       -0.01217        1.13769
H          0.26245        1.12912       -0.04880
H          0.97391       -0.10387        1.03724
H          0.13475        1.32314        1.72118
