24
2,4-DIMETHYL-3-PENTANOL.gamout	Energy:    -351.3370024
C         -1.64765        1.63993       -0.22337
C         -1.33802        0.20380        0.23306
C         -2.51214       -0.73659       -0.09267
C         -0.01796       -0.35450       -0.36629
C          1.25104        0.51711       -0.14415
C          1.57917        0.72925        1.34466
C          2.44958       -0.09078       -0.89315
O          0.20177       -1.70404        0.06409
H         -0.87882        2.37012        0.10168
H         -1.72148        1.69704       -1.33167
H         -2.62033        1.98039        0.18921
H         -1.21144        0.21584        1.34329
H         -2.71746       -0.74439       -1.18569
H         -2.28487       -1.77693        0.21062
H         -3.44164       -0.41211        0.42027
H         -0.16554       -0.44242       -1.46830
H          1.04309        1.51421       -0.59408
H          0.75547        1.22709        1.89737
H          1.79530       -0.23664        1.85383
H          2.48500        1.35896        1.46448
H          2.25117       -0.16236       -1.98342
H          3.36550        0.52109       -0.75495
H          2.65589       -1.11739       -0.52662
H          0.30064       -1.67942        1.03617
