15
2,4-DICHLOROBENZOTRIFLUORIDE.gamout	Energy:   -1487.8614641
C          7.25022        3.04986       -0.95407
F          7.89893        2.90540       -2.13375
F          8.18643        3.22193        0.00895
F          6.53676        4.20278       -1.02931
C          6.34634        1.86522       -0.65312
C          6.85194        0.54945       -0.51435
C          4.96087        2.06629       -0.49829
Cl         8.55403        0.20012       -0.68698
C          5.99435       -0.52618       -0.22738
C          4.08937        1.00671       -0.21228
C          4.61749       -0.28893       -0.07731
Cl         3.55662       -1.62730        0.28432
H          4.55929        3.08457       -0.60258
H          6.40509       -1.53960       -0.12171
H          3.01039        1.17929       -0.09228
