32
2,4-DIMETHYL-4-ETHYLHEXANE.gamout	Energy:    -394.0095894
C         -1.61936        0.42957       -1.66439
C         -0.51709        1.14378       -0.87024
C          0.85351        0.42636       -0.65553
C          1.57140        0.12376       -2.01562
C          1.75762        1.43062        0.09867
C          0.68735       -0.89075        0.16055
C          1.18372       -1.13864       -2.80189
C          0.17282       -0.78238        1.62682
C         -0.83899       -1.90178        1.93864
C          1.31659       -0.80264        2.65883
H         -2.56231        1.01482       -1.62599
H         -1.36035        0.30998       -2.73600
H         -1.84968       -0.57922       -1.26131
H         -0.91877        1.40503        0.13487
H         -0.30757        2.12274       -1.35934
H          2.66427        0.06488       -1.80808
H          1.44511        1.01897       -2.66677
H          2.74048        0.98104        0.35468
H          1.29086        1.79234        1.03866
H          1.95620        2.32458       -0.53159
H          0.00008       -1.55580       -0.40520
H          1.66711       -1.42258        0.16491
H          1.75755       -1.19077       -3.75152
H          0.10926       -1.17209       -3.07003
H          1.41256       -2.06731       -2.23950
H         -0.36645        0.18660        1.74120
H         -1.21626       -1.83509        2.98149
H         -1.71736       -1.86100        1.26020
H         -0.37233       -2.90467        1.81907
H          0.93005       -0.68336        3.69359
H          2.05515        0.00529        2.48423
H          1.86570       -1.76947        2.61986
