17
2,4-DINITROPHENOL.gamout	Energy:    -715.9867326
C          6.38363        1.89609       -0.66629
C          6.91510        0.64534       -0.35139
C          4.98272        2.11651       -0.72841
C          6.03669       -0.41779       -0.07864
C          4.65101       -0.24329       -0.11674
N          6.58855       -1.75131        0.26012
C          4.12539        1.01101       -0.44860
N          2.64408        1.12924       -0.49782
O          4.47319        3.32711       -1.01243
O          2.16601        2.05624       -1.14994
O          1.99979        0.26963        0.10893
O          5.78351       -2.65736        0.48423
O          7.81771       -1.85978        0.29389
H          7.05941        2.74268       -0.87495
H          7.99901        0.47035       -0.30780
H          3.97123       -1.07482        0.11236
H          5.21194        3.95878       -1.12633
