29
2,4-DIMETHYLHEPTANE.gamout	Energy:    -354.7351406
C          4.37454        2.74607        3.08225
C          3.01049        3.48023        2.97856
C          5.35845        2.81772        1.88180
C          2.07714        2.91555        1.88022
C          3.12701        5.01056        2.84611
C          6.25474        4.07119        1.90514
C          6.23424        1.55033        1.83119
C          1.66440        1.44371        2.04137
C          0.70361        0.95986        0.94695
H          4.15642        1.67427        3.28322
H          4.90375        3.10828        3.99418
H          2.50333        3.28242        3.95290
H          4.75988        2.84359        0.94104
H          1.15434        3.54036        1.86122
H          2.54495        3.05922        0.87787
H          3.50343        5.31116        1.84500
H          2.13509        5.49290        2.97598
H          3.81097        5.43837        3.60891
H          5.67299        5.01334        1.89115
H          6.93911        4.08961        1.03020
H          6.88568        4.08269        2.82125
H          6.94683        1.58153        0.97975
H          5.61980        0.63162        1.72378
H          6.83335        1.44518        2.76254
H          2.56732        0.79374        2.04847
H          1.18863        1.30722        3.03980
H          0.42128       -0.10391        1.09095
H         -0.23365        1.55675        0.93699
H          1.16144        1.04844       -0.06177
