22
2,5-DIMETHYL-2,4-HEXADIENE.gamout	Energy:    -313.0222245
C          2.95729        2.13533        1.83346
C          3.73660        3.28357        1.40413
C          1.63011        1.89914        1.60034
C          5.06385        3.51961        1.63698
C          0.71931        2.82485        0.83097
C          0.96870        0.64490        2.11983
C          5.97482        2.59359        2.40578
C          5.72523        4.77391        1.11759
H          3.49356        1.36326        2.41358
H          3.20023        4.05586        0.82440
H         -0.14520        3.13638        1.45954
H          0.28477        2.30565       -0.05331
H          1.22208        3.74169        0.46938
H          0.53228        0.04549        1.28802
H          0.12066        0.88620        2.80093
H          1.67790       -0.00333        2.67279
H          6.83898        2.28204        1.77675
H          5.47205        1.67674        2.76735
H          6.40985        3.11253        3.28997
H          6.16222        5.37294        1.94936
H          5.01586        5.42246        0.56522
H          6.57285        4.53268        0.43593
