24
2,5-DIMETHYL-2-HEXENE.gamout	Energy:    -314.2353742
C          1.95339        2.27345        2.79609
C          3.11686        2.37242        3.75055
C          2.01719        1.08795        1.79065
C          3.14991        2.02142        5.06184
C          3.27370        1.14101        0.90603
C          0.74039        1.04181        0.93485
C          4.41276        2.18312        5.87822
C          1.97377        1.45571        5.82476
H          1.89291        3.21692        2.20311
H          0.99687        2.20527        3.35759
H          4.05641        2.77196        3.32438
H          2.06344        0.15061        2.39315
H          4.20556        1.10129        1.50665
H          3.29824        2.07687        0.30461
H          3.30067        0.28893        0.19402
H          0.74822        0.17507        0.24037
H          0.64024        1.96190        0.31795
H         -0.17239        0.96065        1.56244
H          4.24450        2.85566        6.74990
H          5.24722        2.60082        5.27990
H          4.74670        1.20878        6.30164
H          1.73068        2.09299        6.70448
H          1.05813        1.35791        5.21046
H          2.21664        0.44875        6.23210
