19
2,5-XYLENOL.gamout	Energy:    -385.8208589
C         -1.63990        0.27707       -0.15694
C         -0.28806        0.66365       -0.07040
C         -2.02419       -1.07371       -0.03277
C         -1.01159       -2.03265        0.18169
C          0.73283       -0.29593        0.14522
C          0.33486       -1.64091        0.26732
C          2.17313        0.14357        0.23381
H          2.32664        0.86864        1.06174
H          2.84526       -0.72128        0.40230
H          2.49810        0.65968       -0.69500
C         -3.47772       -1.48368       -0.12661
H         -3.64385       -2.19957       -0.95998
H         -4.14142       -0.61190       -0.29527
H         -3.81704       -1.98919        0.80297
O          0.10524        1.97112       -0.18978
H         -0.68901        2.51983       -0.33399
H         -2.41018        1.05092       -0.32573
H         -1.27812       -3.09703        0.28312
H          1.11254       -2.40451        0.43535
