32
2,5-DIMETHYLOCTANE.gamout	Energy:    -394.0211076
C          3.50439        2.90885        2.69457
C          1.97615        2.96854        2.46348
C          1.34773        4.22396        3.11771
C          1.27360        1.69819        2.97747
C          4.25996        1.91066        1.80263
C          1.68143        5.58182        2.46805
C          5.78570        1.83492        2.04567
C          1.07405        5.78618        1.07350
C          6.48147        1.06001        0.91279
C          6.13084        1.21916        3.41359
H          3.68369        2.67444        3.76942
H          3.94112        3.92016        2.53294
H          1.80095        3.02530        1.36280
H          0.24016        4.10176        3.12835
H          1.65432        4.24649        4.18943
H          1.69088        0.77458        2.52584
H          1.38168        1.60893        4.08109
H          0.18662        1.71711        2.75132
H          4.08328        2.18213        0.73636
H          3.83459        0.88760        1.92439
H          1.32048        6.39080        3.14123
H          2.78565        5.71589        2.41668
H          6.17980        2.87943        2.03187
H          1.43046        5.02639        0.34630
H         -0.03503        5.71842        1.10337
H          1.33490        6.78201        0.65762
H          6.28422        1.51833       -0.07932
H          6.11996        0.00870        0.87069
H          7.58202        1.02583        1.05733
H          5.76735        0.16961        3.47451
H          7.22811        1.20151        3.58343
H          5.67550        1.78071        4.25541
