22
2,5-DIMETHYL-1,5-HEXADIENE.gamout	Energy:    -313.0037178
C          3.32146        2.19730        1.62871
C          4.59512        1.69200        2.33292
C          2.03713        1.43499        1.90252
C          5.84142        2.49246        1.99544
C          0.82413        1.95705        1.16535
C          1.95803        0.37238        2.73274
C          5.91754        3.90065        2.54107
C          6.83604        1.96397        1.24929
H          3.14088        3.26709        1.88829
H          3.49818        2.20276        0.52714
H          4.42959        1.71981        3.43484
H          4.76095        0.62763        2.06242
H          0.62296        3.02074        1.42423
H          0.98257        1.93066        0.06411
H         -0.08692        1.36987        1.39555
H          0.99937       -0.14608        2.89773
H          2.83188       -0.02001        3.27515
H          5.82640        3.90058        3.65022
H          6.87171        4.39664        2.27387
H          5.08715        4.53646        2.16187
H          7.74083        2.54360        1.00142
H          6.77955        0.93229        0.86375
