24
2,5-DIMETHYL-1-HEXENE.gamout	Energy:    -314.2308899
C          3.15224        1.76537        3.21294
C          1.87023        1.18703        3.85105
C          3.60579        1.07760        1.90378
C          1.49111        1.83222        5.17375
C          2.58143        1.23747        0.76656
C          4.98597        1.60263        1.47297
C          2.39512        1.55172        6.35285
C          0.39634        2.61524        5.28880
H          3.98750        1.70064        3.94548
H          2.99924        2.85249        3.01949
H          1.02013        1.29390        3.14511
H          2.01586        0.09179        4.00893
H          3.70904       -0.01356        2.11733
H          2.41282        2.31184        0.53217
H          2.93265        0.74582       -0.16502
H          1.59727        0.79257        1.02116
H          4.94610        2.69217        1.25266
H          5.74834        1.45238        2.26663
H          5.35030        1.09248        0.55625
H          2.47208        0.45745        6.54187
H          2.03082        2.03609        7.28051
H          3.43288        1.90815        6.17033
H         -0.26537        2.80921        4.42803
H          0.12400        3.08848        6.24686
