29
2,6-DIMETHYLHEPTANE.gamout	Energy:    -354.7415457
C          3.61706        1.23199        0.16466
C          2.65376        0.05627       -0.07920
C          1.18650        0.54328       -0.06515
C          0.11714       -0.55982       -0.04387
C         -1.31738       -0.01174        0.02676
C         -2.44171       -1.07321        0.04343
C         -3.82160       -0.40350       -0.07947
H          3.39442        1.74774        1.12256
H          4.67391        0.89299        0.20025
H          3.53612        1.98834       -0.64687
C          3.01710       -0.68527       -1.37775
H          2.77566       -0.65999        0.76812
H          1.03881        1.19544        0.82641
H          1.02153        1.20882       -0.94593
H          0.21274       -1.20486       -0.94643
H          0.31098       -1.22782        0.82594
H         -1.42413        0.63367        0.93102
H         -1.48230        0.66663       -0.84174
H         -4.63866       -1.15511       -0.10710
H         -4.01566        0.26806        0.78568
H         -3.89666        0.21169       -1.00090
C         -2.38159       -1.97280        1.29069
H         -2.29893       -1.72469       -0.85182
H         -2.48515       -1.36858        2.21910
H         -1.42621       -2.53238        1.36017
H         -3.20166       -2.72186        1.28884
H          4.07376       -1.02657       -1.36323
H          2.89327       -0.02079       -2.26115
H          2.38458       -1.58225       -1.54265
