23
2,6-DIMETHYLQUINOLINE.gamout	Energy:    -480.2159732
C         -3.92957       -5.76267        0.67898
C         -2.52175       -5.94302        0.48518
C         -4.38911       -4.50087        1.05300
C         -4.87228       -6.92700        0.47711
C         -1.62327       -4.90109        0.66023
C         -2.07862       -3.60250        1.04320
C         -3.49376       -3.40670        1.24218
C         -3.91494       -2.09827        1.62504
N         -1.16000       -2.60078        1.20584
C         -1.58278       -1.39120        1.56321
C         -2.97081       -1.09845        1.78486
C         -0.54451       -0.30559        1.73468
H         -2.14980       -6.93838        0.18932
H         -5.46853       -4.33288        1.20960
H         -5.92617       -6.63780        0.66037
H         -4.80447       -7.32575       -0.55814
H         -4.62636       -7.76758        1.16138
H         -0.54094       -5.03633        0.51207
H         -4.98716       -1.89874        1.78919
H         -3.27281       -0.08057        2.07976
H         -0.55643        0.10337        2.76797
H          0.46028       -0.71661        1.52322
H         -0.73736        0.54632        1.04758
