20
2,6-DIMETHYLANILINE.gamout	Energy:    -365.9703415
C          7.27488        3.01592       -0.97135
C          6.36493        1.84671       -0.67581
C          6.88062        0.58097       -0.34044
C          4.95067        2.02162       -0.72880
C          6.03518       -0.50364       -0.05580
C          4.64411       -0.31640       -0.10401
C          4.08128        0.93037       -0.43424
C          2.58474        1.13302       -0.47556
N          4.41501        3.28081       -1.01194
H          8.34120        2.73843       -0.85870
H          7.14456        3.39719       -2.01158
H          7.07614        3.87497       -0.29142
H          7.97519        0.45114       -0.30144
H          6.45669       -1.48681        0.20446
H          3.96752       -1.15784        0.12141
H          2.04401        0.20926       -0.19069
H          2.25773        1.94258        0.21539
H          2.22789        1.41979       -1.49276
H          5.02201        3.92220       -1.52588
H          3.45541        3.29135       -1.36253
