40
2,6-DI-TERT-BUTYL-P-CRESOL.gamout	Energy:    -660.7873006
C          6.38633        1.91761       -0.60587
C          7.32826        3.04832       -1.09339
C          6.83527        0.56777       -0.47907
C          5.04601        2.18050       -0.26874
C          4.15612        1.18340        0.17636
C          4.64400       -0.12784        0.28920
C          2.72114        1.52582        0.51493
C          5.97582       -0.47614       -0.02564
C          6.47548       -1.93976        0.12549
O          8.14878        0.31967       -0.81376
C          7.62698       -2.01677        1.17033
C          6.92840       -2.51456       -1.24840
C          5.35908       -2.87875        0.63811
C          7.82784        2.74414       -2.53206
C          8.53689        3.19426       -0.12800
C          6.60716        4.41464       -1.13715
H          4.66378        3.20814       -0.35399
H          3.95197       -0.90658        0.63966
H          2.17028        0.64565        0.90384
H          2.66025        2.32449        1.28553
H          2.16711        1.89833       -0.37434
H          8.32650       -0.63215       -0.69856
H          7.26252       -1.68871        2.16548
H          7.99643       -3.05967        1.26741
H          8.50302       -1.37753        0.93390
H          6.07722       -2.52624       -1.95978
H          7.73865       -1.94137       -1.74662
H          7.29201       -3.55741       -1.13081
H          4.98456       -2.57264        1.63591
H          4.49785       -2.91802       -0.05951
H          5.75741       -3.91029        0.73434
H          8.39263        1.79480       -2.57859
H          6.97302        2.67491       -3.23760
H          8.49338        3.56073       -2.88604
H          9.13036        2.26299       -0.07508
H          9.20232        4.01324       -0.47553
H          8.19205        3.44754        0.89658
H          6.24122        4.72903       -0.13754
H          7.31586        5.19310       -1.48895
H          5.74608        4.41243       -1.83735
