24
2,6-DIMETHYLNAPHTHALENE.gamout	Energy:    -464.1839517
C          1.85893        1.83022        0.90820
C          0.56424        1.04929        0.92105
C          3.09947        1.19803        0.95799
C          1.82917        3.26051        0.84225
C          4.32321        1.93322        0.94477
C          2.99715        4.00794        0.82753
C          4.27691        3.37434        0.87794
C          5.60296        1.29963        0.99576
C          5.50063        4.10956        0.86478
C          6.77092        2.04710        0.98106
C          6.74117        3.47734        0.91418
C          8.03595        4.25801        0.89679
H         -0.08190        1.35291        1.77292
H         -0.02476        1.22603       -0.00530
H          0.74447       -0.04105        1.00335
H          3.14903        0.09685        1.00969
H          0.85233        3.77107        0.80303
H          2.95252        5.10842        0.77623
H          5.64760        0.19917        1.04734
H          5.45107        5.21074        0.81315
H          7.74780        1.53669        1.02123
H          8.65590        4.03520        1.79213
H          8.65214        3.99754        0.00879
H          7.85473        5.35104        0.87361
