19
2,6-XYLENOL.gamout	Energy:    -385.8209407
C          6.32379        1.89127       -0.66383
C          6.83227        0.59302       -0.40702
C          4.93386        2.08664       -0.55698
C          7.27491        3.00201       -1.03728
C          4.07009        1.03410       -0.20720
C          4.59860       -0.24166        0.04222
C          5.98366       -0.48594       -0.05281
C          6.57991       -1.85153        0.20946
O          8.18936        0.42979       -0.51933
H          4.52427        3.09141       -0.75362
H          8.03352        3.16894       -0.24285
H          7.84113        2.75697       -1.96145
H          6.73168        3.95295       -1.20476
H          2.98590        1.20947       -0.12919
H          3.92887       -1.07340        0.31717
H          7.31020       -1.83849        1.05175
H          5.79546       -2.58540        0.47826
H          7.10953       -2.25840       -0.68313
H          8.40622       -0.50052       -0.31846
