25
2,6-DIMETHYL-1,5-HEPTADIENE.gamout	Energy:    -352.2865647
C          1.51800        1.17294        3.93477
C          1.86976        1.47771        2.66648
C          3.23602        2.01054        2.27630
C          0.90385        1.30524        1.51528
C          4.25940        2.21276        3.39872
C          5.61614        2.76467        2.90084
C          6.38224        1.84845        1.96080
C          6.63355        2.20095        0.68057
C          6.86291        0.53559        2.53539
H          2.20712        1.29330        4.78474
H          0.51149        0.78661        4.16499
H          3.08801        2.97834        1.73795
H          3.66600        1.33348        1.50031
H          0.72714        2.27157        0.99187
H          1.31377        0.60890        0.74989
H         -0.07626        0.91144        1.84995
H          3.84893        2.91999        4.15235
H          4.41981        1.25261        3.93774
H          6.25371        2.97151        3.79183
H          5.45171        3.74366        2.39998
H          7.19986        1.54343       -0.00007
H          6.28365        3.16418        0.27369
H          7.50123        0.70357        3.43139
H          6.01438       -0.09932        2.87313
H          7.44913       -0.04922        1.79901
