32
2,7-DIMETHYLOCTANE.gamout	Energy:    -394.0240749
C         -0.18146       -0.03147        0.02069
C          0.98988        0.87587        0.43522
H         -0.04950       -1.06776        0.39773
H         -1.14991        0.34958        0.40792
H         -0.26609       -0.09037       -1.08694
C          2.33312        0.28850       -0.05519
H          1.02667        0.89392        1.55104
C          0.76080        2.31894       -0.04934
H          2.32630        0.26402       -1.17097
H          2.38643       -0.77752        0.26515
C          3.59630        1.01412        0.43307
H          3.56476        1.09851        1.54464
H          3.60489        2.06121        0.05442
C          4.90454        0.32381        0.01516
H          4.93608        0.23944       -1.09641
H          4.89595       -0.72328        0.39380
C          6.16772        1.04943        0.50343
H          6.17461        1.07382        1.61922
H          6.11439        2.11547        0.18318
C          7.51096        0.46214        0.01293
H          7.47412        0.44414       -1.10290
C          7.74012       -0.98095        0.49740
C          8.68228        1.36950        0.42745
H          8.76697        1.42835        1.53508
H          8.55026        2.40581        0.05047
H          9.65073        0.98852        0.04016
H         -0.23141        2.69748        0.27502
H          0.78964        2.37249       -1.16029
H          1.52658        3.02102        0.33975
H          6.97435       -1.68305        0.10832
H          7.71135       -1.03457        1.60835
H          8.73233       -1.35944        0.17298
