13
2-(2-HYDROXI_ETHOXY)-AMMONIUM+1.gamout	Energy:    -285.6722934
O         -4.49292       -2.49660        0.01158
C         -3.45557       -1.56063        0.17988
C         -2.18559       -2.40760        0.06272
H         -3.46466       -1.05558        1.17683
H         -3.43791       -0.76499       -0.60428
O         -1.04985       -1.50879        0.24898
H         -2.13377       -2.88256       -0.94355
H         -2.17897       -3.19216        0.85398
N          0.15856       -2.21588        0.18641
H          0.21689       -2.96530        0.91826
H          0.31324       -2.65444       -0.75352
H         -5.35000       -2.03339        0.06209
H          0.91635       -1.52279        0.36152
