32
2-(4-(2-HYDROXYETHYL)-1-PIPERAZINYL)ETHANESULFONATE-1.gamout	Energy:   -1123.0315087
O         -5.32037       -1.36157       -0.65473
C         -4.15557       -1.15142        0.14244
H         -6.08553       -1.07854       -0.12360
C         -2.93038       -1.50957       -0.70482
H         -4.09063       -0.08975        0.48932
H         -4.14043       -1.79446        1.05827
N         -1.69090       -1.49593        0.05529
H         -2.90515       -0.83748       -1.60901
H         -3.09214       -2.53992       -1.09044
C         -1.22574       -0.14932        0.39265
C          0.02511       -0.21469        1.27552
H         -2.02538        0.39713        0.93938
H         -0.98461        0.44129       -0.53396
C         -0.60787       -2.23940       -0.60592
C          0.64272       -2.31660        0.27025
H         -0.31236       -1.76603       -1.57915
H         -0.97045       -3.26756       -0.82485
N          1.07509       -0.97817        0.64045
H         -0.26954       -0.64128        2.28259
H          0.39241        0.81944        1.46224
H          1.44872       -2.77269       -0.34347
H          0.42096       -2.95957        1.17235
C          2.34238       -0.88147        1.35707
C          3.49525       -1.72039        0.81327
H          2.20264       -1.14506        2.45072
H          2.66081        0.18423        1.31881
S          3.98043       -1.37628       -0.95695
H          4.41034       -1.48832        1.39555
H          3.31926       -2.81418        0.88825
O          5.32033       -2.04947       -1.06734
O          2.90717       -2.02487       -1.80107
O          4.01872        0.12589       -1.02511
