12
2-(DIFLUOROMETHOXY)-1,1,1-TRIFLUOROETHANE.gamout	Energy:    -690.0418962
C         -1.98407        3.13651        0.21501
C         -0.47299        2.96930        0.11105
C          1.17436        1.29613        0.35636
O         -0.15351        1.60819        0.40422
H          0.00453        3.66190        0.83562
H         -0.15839        3.24331       -0.91787
F         -2.64138        2.34839       -0.66141
F         -2.29495        4.42676       -0.06360
F         -2.43811        2.85261        1.45372
F          1.89749        2.04937        1.24292
F          1.70624        1.54958       -0.88035
H          1.28479        0.21840        0.59999
