26
2-ACETOXYETHYLTRIMETHYLAMMONIUM+1.gamout	Energy:    -480.9628308
O          2.19852       -0.43435       -0.00437
O          4.27530       -1.22231        0.00374
N         -1.21512        1.07221        0.00025
C          0.29732        0.85591       -0.00303
C         -1.46676        2.56509        0.00185
C         -1.84141        0.46896        1.23591
C         -1.84664        0.47069       -1.23355
C          0.78951       -0.59816       -0.00486
C          3.10802       -1.50612        0.00001
C          2.56599       -2.92196        0.00104
H          0.69682        1.37228       -0.89806
H          0.70034        1.36985        0.89188
H         -1.01087        3.00692       -0.90309
H         -1.00736        3.00558        0.90550
H         -2.55738        2.74669        0.00412
H         -1.35684        0.89821        2.13225
H         -2.92093        0.70686        1.24309
H         -1.70535       -0.62680        1.22180
H         -2.92621        0.70791       -1.23574
H         -1.36608        0.90145       -2.13138
H         -1.70993       -0.62506       -1.22165
H          0.44002       -1.14656       -0.90964
H          0.44040       -1.15076        0.89706
H          2.95873       -3.43776        0.90072
H          2.99332       -3.45166       -0.87458
H          1.46638       -3.02741       -0.01926
