11
2-BROMOPROPANE.gamout	Energy:   -2692.5677476
C          0.05099       -0.02836        0.06710
C          1.57031       -0.02288       -0.04874
C         -0.59170        1.34764       -0.04834
Br        -0.47046       -0.84984        1.82251
H         -0.39433       -0.73263       -0.66360
H          1.99337       -1.04030        0.06310
H          2.02918        0.63265        0.71990
H          1.86378        0.36457       -1.04994
H         -1.69268        1.29810        0.06389
H         -0.36646        1.78059       -1.04847
H         -0.19344        2.04024        0.72163
