30
2-BUTYLNAPHTHALENE.gamout	Energy:    -542.7451656
C          8.52113        3.61473        0.83887
C          8.26276        2.36175       -0.02788
C          6.97431        1.64323        0.31880
C          9.83591        4.33472        0.50247
C          5.83098        1.76335       -0.46870
C          6.90397        0.83815        1.50065
C         10.08866        5.57703        1.36574
C          4.60534        1.11332       -0.12874
C          5.73300        0.19120        1.86494
C          4.55183        0.30620        1.07050
C          3.42843        1.22810       -0.93056
C          3.32860       -0.34621        1.41174
C          2.25303        0.58057       -0.57050
C          2.20197       -0.21316        0.61032
H          7.66535        4.31690        0.71878
H          8.52360        3.32329        1.91407
H          9.11992        1.66082        0.09175
H          8.24783        2.65637       -1.10003
H         10.68366        3.62137        0.61859
H          9.82972        4.62287       -0.57369
H          5.86441        2.37519       -1.38647
H          7.80501        0.72844        2.12703
H         11.04365        6.07561        1.09865
H          9.27696        6.32614        1.24488
H         10.13874        5.31828        2.44531
H          5.70146       -0.42830        2.77635
H          3.46750        1.84254       -1.84509
H          3.29307       -0.96051        2.32649
H          1.35407        0.67945       -1.19941
H          1.26479       -0.72216        0.88605
