15
2-BUTANOL.gamout	Energy:    -233.4886259
C         -4.47262       -1.40500        0.02296
C         -3.23422       -0.50930       -0.16223
H         -1.30189       -0.41642       -1.19136
H         -1.76275       -2.06177       -0.64759
H         -2.55360       -1.32549       -2.08920
H         -3.73201       -2.57297        1.71426
H         -5.15885       -3.29142        0.89562
H         -3.54613       -3.40667        0.13736
C         -2.15788       -1.11649       -1.07277
O         -2.71603       -0.24008        1.14443
H         -1.90480        0.28860        1.03130
C         -4.20986       -2.74112        0.72837
H         -5.21587       -0.82102        0.60895
H         -4.93131       -1.57331       -0.97664
H         -3.58860        0.44263       -0.63685
