31
2-BUTYL-2-ETHYL-1,3-PROPANEDIOL.gamout	Energy:    -505.0516705
O          3.14600       -0.05813        0.33233
O          0.53758       -2.53183        0.01957
C          0.74613       -0.11193       -0.04772
C         -0.59155       -0.02291        0.73750
C          0.93708        1.05100       -1.06178
C          1.88635       -0.10767        0.99871
C          0.82547       -1.43458       -0.84402
C         -1.88556       -0.01644       -0.08949
C         -3.14936        0.06836        0.78330
C          0.87642        2.47161       -0.48603
C         -4.45620        0.06121       -0.01894
H         -0.62986       -0.88883        1.43351
H         -0.56481        0.88685        1.37904
H          1.92627        0.90738       -1.54595
H          0.17903        0.94656       -1.86979
H          1.75046        0.76662        1.68268
H          1.78682       -1.03432        1.61243
H          1.85399       -1.51172       -1.27058
H          0.10850       -1.38986       -1.70181
H         -1.93889       -0.94086       -0.70757
H         -1.88623        0.83492       -0.80786
H         -3.09995        0.99003        1.40763
H         -3.14969       -0.78009        1.50526
H          1.03022        3.22174       -1.28992
H         -0.10081        2.69807       -0.01052
H          1.67045        2.64187        0.27036
H         -4.55614       -0.86674       -0.62203
H         -5.34484        0.12547        0.64322
H         -4.50418        0.91903       -0.72415
H          3.84040       -0.15758        1.00767
H          0.69385       -3.35064       -0.48370
