9
2-CHLOROETHANOL.gamout	Energy:    -614.4144970
Cl        -5.25155        1.93366        0.18305
C         -3.78166        2.94641       -0.09160
C         -2.52415        2.08377       -0.06332
H         -3.74654        3.71978        0.70068
H         -3.89022        3.44934       -1.07253
O         -1.42806        2.95690       -0.28622
H         -2.61340        1.29199       -0.84797
H         -2.46805        1.56241        0.92426
H         -0.61395        2.42207       -0.27189
