15
2-CHLOROETHYL_ETHER.gamout	Energy:   -1152.4711670
Cl         1.07058       -0.17027       -0.03167
C          2.86929       -0.02476       -0.05424
C          3.27512        1.43222       -0.25140
O          4.69086        1.47965       -0.25779
C          5.20882        2.78782       -0.42721
C          6.72985        2.68214       -0.40553
Cl         7.46790        4.31636       -0.61010
H          3.25386       -0.65763       -0.87764
H          3.25692       -0.41454        0.90707
H          2.85017        2.05826        0.57257
H          2.84879        1.81937       -1.21003
H          4.86478        3.46981        0.38976
H          4.87135        3.23673       -1.39435
H          7.09415        2.03635       -1.22811
H          7.08207        2.26577        0.55837
