11
2-CHLOROPROPANE.gamout	Energy:    -578.5477390
C          0.66548        1.27046        1.80410
C          2.06375        1.83909        1.58647
C          3.05235        0.84675        0.98275
Cl         1.94972        3.31473        0.49253
H         -0.01742        2.03434        2.22544
H          0.23374        0.90682        0.84900
H          0.71173        0.41532        2.51273
H          2.46406        2.24138        2.53996
H          2.68862        0.47336        0.00338
H          4.04551        1.31284        0.82893
H          3.17795       -0.02349        1.66297
