17
2-CHLORO-2-METHYLBUTANE.gamout	Energy:    -657.1154749
C          0.50694        1.05684        0.02232
C          2.04722        0.98748       -0.04951
C          2.53235       -0.46584       -0.00417
C          2.63415        1.73213       -1.25316
Cl         2.72051        1.81526        1.48185
C         -0.11677        2.45558        0.00597
H          0.18732        0.51185        0.93671
H          0.12516        0.46269       -0.84093
H          3.63933       -0.51334        0.01459
H          2.14672       -0.99139        0.89249
H          2.17677       -1.01099       -0.90574
H          3.73857        1.64155       -1.26978
H          2.37929        2.80937       -1.23703
H          2.23580        1.29414       -2.19460
H         -1.21904        2.39472        0.11560
H          0.08957        2.99459       -0.94139
H          0.27754        3.06743        0.84276
