16
2-CHLOROMETHYLPHENOL.gamout	Energy:    -806.0291032
Cl         2.97731       -0.18892       -0.82579
O          0.49041        2.21045        0.19790
C          0.46481       -0.16530        0.35024
C         -0.22267        1.05197        0.09519
C         -0.25405       -1.37317        0.24907
C          1.92685       -0.15245        0.68291
C         -1.59226        1.03504       -0.24023
C         -1.61731       -1.39582       -0.08673
C         -2.28427       -0.18289       -0.33263
H          0.27998       -2.31927        0.43780
H          2.21646       -1.04397        1.26980
H          2.21900        0.76546        1.22418
H         -2.11477        1.98800       -0.43370
H         -2.15711       -2.35259       -0.15524
H         -3.35365       -0.18000       -0.59745
H         -0.09758        2.96049       -0.01311
