14
2-CHLOROBUTANE.gamout	Energy:    -617.8312186
C          1.71942        1.81542        1.82493
C          2.01988        1.65774        3.31848
C          0.89385        0.99807        4.10746
Cl         2.37236        3.30695        4.06372
C          2.86732        2.38861        0.98934
H          1.44342        0.80280        1.44923
H          0.80651        2.44239        1.71619
H          2.96826        1.09603        3.45607
H          0.71314       -0.02864        3.72223
H         -0.04856        1.57585        4.01138
H          1.14706        0.92621        5.18343
H          3.76631        1.73739        1.03308
H          3.15820        3.39185        1.36119
H          2.57522        2.48673       -0.07610
