12
2-CIS-1-CHLOROBUTENE.gamout	Energy:    -616.6041089
C          0.49355        0.65729        0.09181
C         -0.19427       -0.50268        0.01226
Cl        -0.41871        2.17006        0.26299
C          1.97708        0.87805        0.05656
C          0.38921       -1.88049       -0.13377
H         -1.29492       -0.43705        0.05903
H          2.25560        1.53993       -0.79113
H          2.32201        1.37858        0.98646
H          2.52785       -0.07681       -0.05083
H          1.49609       -1.88388       -0.17419
H          0.07940       -2.53279        0.71270
H          0.01614       -2.37359       -1.05891
