15
2-CYCLOHEXENE-1-ONE.gamout	Energy:    -308.4371628
C         -2.74576        4.14350       -0.32301
C         -3.53140        2.94997        0.24654
C         -1.27923        4.12276        0.13844
H         -3.23394        5.10036       -0.04219
H         -2.77447        4.08890       -1.43423
C         -0.58294        2.79375       -0.17287
H         -1.22446        4.26540        1.24394
H         -0.67707        4.93717       -0.31285
C         -1.44516        1.58293       -0.12350
C         -2.78348        1.65136        0.09543
H         -4.52981        2.86402       -0.23592
H         -3.75033        3.10642        1.33167
H         -3.36694        0.71597        0.17827
H         -0.92498        0.61891       -0.24888
O          0.62101        2.72226       -0.40607
