39
2-CYCLOPENTYLOCTANE.gamout	Energy:    -510.6564348
C          4.16217       -0.58064       -1.98695
C          2.64772       -0.81503       -1.91552
C          1.99129       -0.22630       -0.65711
C          0.47386       -0.45501       -0.57403
C         -0.17912        0.20656        0.65139
C         -1.72306        0.01609        0.77827
C         -2.40100        1.35970        1.17144
C         -3.87510        1.54579        0.78170
H          4.68422       -1.03947       -1.11981
H          4.60246       -1.01497       -2.90853
H          4.40347        0.50401       -1.97968
H          2.15962       -0.38138       -2.81831
H          2.43722       -1.90805       -1.96149
H          2.47851       -0.66032        0.24721
H          2.20121        0.86790       -0.61047
H         -0.00833       -0.05964       -1.49820
H          0.26906       -1.54829       -0.57743
H          0.32071       -0.15617        1.57925
H          0.04963        1.29482        0.60886
H         -2.27014        1.52754        2.26631
H         -1.82666        2.17837        0.68364
H         -4.02018        1.41355       -0.31245
H         -4.55634        0.83748        1.29098
H         -4.21806        2.57095        1.03589
C         -2.05683       -1.15220        1.74284
H         -2.11237       -0.26210       -0.23187
H         -1.65200       -0.86699        2.74582
C         -1.44255       -2.52290        1.36828
C         -3.54751       -1.52838        1.92814
H         -4.02947       -1.59487        0.92700
H         -4.11831       -0.78157        2.51532
C         -3.53990       -2.92199        2.61112
H         -0.33755       -2.55402        1.46020
H         -1.68869       -2.74733        0.30527
C         -2.13968       -3.53623        2.30306
H         -4.37023       -3.55921        2.24251
H         -3.68956       -2.82218        3.70660
H         -1.55605       -3.65290        3.24067
H         -2.20626       -4.54613        1.84836
