28
2-DECYNE.gamout	Energy:    -391.5513663
C          6.36157        2.99573        1.64708
C          4.95689        2.47575        2.00237
C          3.79394        3.34219        1.48702
C          6.74857        4.31858        2.35304
C          2.39053        2.82509        1.85625
C          8.10813        4.77303        2.04932
C          1.98256        1.49316        1.20299
C          9.24772        5.13587        1.78017
C          0.55093        1.06597        1.54955
C         10.60474        5.57576        1.46420
H          6.44347        3.13858        0.54657
H          7.11860        2.22644        1.91171
H          4.87065        2.36886        3.10924
H          4.85854        1.44632        1.59409
H          3.89779        4.37595        1.88465
H          3.87450        3.43742        0.37892
H          6.64052        4.18691        3.45516
H          6.02736        5.12161        2.07843
H          1.63976        3.59954        1.57883
H          2.31912        2.72472        2.96466
H          2.08938        1.58352        0.09753
H          2.68882        0.68936        1.50868
H          0.27667        0.10618        1.06410
H          0.42241        0.93243        2.64526
H         -0.18943        1.82788        1.22343
H         11.30654        5.37395        2.30226
H         10.64353        6.66709        1.25657
H         11.00412        5.05530        0.56693
