16
2-ETHOXYETHANOL.gamout	Energy:    -308.6338627
O         -1.15384        0.24215       -0.03851
O          2.43489       -0.07573       -0.16186
C          0.08858       -0.42816       -0.08020
C         -2.26629       -0.63502        0.01191
C          1.19742        0.61834       -0.12325
C         -3.54629        0.18739        0.05482
H          0.23388       -1.08287        0.81710
H          0.17044       -1.09153       -0.97879
H         -2.26663       -1.31535       -0.87911
H         -2.19733       -1.29948        0.91242
H          1.09775        1.27465        0.77689
H          1.03832        1.26795       -1.01995
H         -4.43408       -0.47620        0.09735
H         -3.55819        0.84566        0.94756
H         -3.63140        0.82851       -0.84634
H          3.14479        0.58978       -0.18870
