27
2-ETHYL-1-HEXANOL.gamout	Energy:    -390.6110174
C          3.66982        2.24992        2.10920
C          4.96968        2.32651        2.94424
C          5.04317        3.59253        3.83365
C          6.21755        2.16960        2.06322
C          3.29113        0.83770        1.62848
C          4.97417        4.93771        3.09647
O          7.36448        2.09265        2.90289
C          2.03150        0.76629        0.74407
C          0.73138        1.20069        1.43542
H          2.83942        2.66057        2.72509
H          3.74740        2.92791        1.22649
H          4.97921        1.45309        3.63808
H          5.98560        3.54127        4.41849
H          4.21354        3.54019        4.57454
H          6.11463        1.25009        1.43463
H          6.28199        3.03332        1.35245
H          4.14273        0.39700        1.06395
H          3.15043        0.17818        2.51688
H          5.07457        5.78344        3.80823
H          4.01174        5.07490        2.55933
H          5.78955        5.04627        2.34987
H          8.15210        2.08339        2.32985
H          2.18931        1.38396       -0.17037
H          1.91731       -0.27891        0.37947
H          0.54777        0.60513        2.35592
H         -0.14641        1.06414        0.77006
H          0.75272        2.27010        1.73285
