24
2-ETHYL-P-XYLENE.gamout	Energy:    -389.2162228
C          2.13645        5.57536        2.88527
C          2.54857        5.15149        1.46103
C          2.97200        3.69547        1.36486
C          2.02638        2.65666        1.13496
C          4.33016        3.35748        1.53682
C          0.55678        2.94980        0.91803
C          2.49333        1.32683        1.09243
C          4.79790        2.02722        1.50067
C          3.84917        1.01071        1.27167
C          6.26060        1.70906        1.72087
H          1.28456        4.97233        3.26322
H          1.83348        6.64327        2.91597
H          2.97586        5.43903        3.59855
H          3.39004        5.79544        1.12493
H          1.70991        5.35294        0.76044
H          5.05729        4.17223        1.70329
H          0.10444        3.49677        1.77279
H         -0.02042        2.01372        0.78163
H          0.38708        3.57714        0.01523
H          1.77025        0.51479        0.90675
H          4.17416       -0.04208        1.22742
H          6.53888        0.73128        1.27773
H          6.50427        1.65753        2.80555
H          6.92002        2.48466        1.27926
