17
2-ETHYLPYRIDINE.gamout	Energy:    -326.6752241
C          2.24356       -4.67976        0.59685
C          3.20794       -4.03248       -0.41275
C          3.20290       -2.51802       -0.33080
C          4.31472       -1.79140        0.15112
N          2.06498       -1.90233       -0.72323
C          4.24000       -0.39128        0.22304
C          2.00242       -0.56374       -0.64985
C          3.05715        0.24388       -0.18612
H          2.21945       -5.78293        0.48037
H          2.53994       -4.45329        1.64260
H          1.21643       -4.29048        0.44301
H          2.90192       -4.31866       -1.44268
H          4.24101       -4.41229       -0.26214
H          5.22802       -2.32267        0.46341
H          5.09588        0.19577        0.59344
H          1.05532       -0.09884       -0.98297
H          2.95073        1.33918       -0.14976
