15
2-ETHYLTHIOPHENE.gamout	Energy:    -631.3826205
S         -0.58283        1.33690       -0.29448
C          1.80954        0.07692        0.58959
C          0.32803       -0.02680        0.33078
C          2.66734        0.25989       -0.67773
C         -0.50888       -1.11973        0.49631
C         -1.86970       -0.86400        0.12662
C         -2.06404        0.42750       -0.32319
H          2.01175        0.91338        1.29606
H          2.11680       -0.84961        1.12051
H          2.54299       -0.59800       -1.36994
H          3.74377        0.34435       -0.42033
H          2.37808        1.17918       -1.22812
H         -0.14788       -2.08758        0.87631
H         -2.67652       -1.60873        0.19082
H         -2.99356        0.90414       -0.66045
