21
2-ETHOXYETHYL_ACETATE.gamout	Energy:    -461.1823271
C         -1.94886        1.30603        0.87479
C         -2.85120        0.94855       -0.29573
H         -3.77700        1.54497       -0.21467
H         -3.10999       -0.13068       -0.29291
H         -2.36049        1.16309       -1.26752
C         -0.33210       -0.30615       -0.01830
C          1.04398       -0.81368        0.40055
C          2.72147       -2.33749       -0.29553
C          3.04574       -3.34263       -1.39077
H          2.28426       -4.14846       -1.42104
H          4.03754       -3.80531       -1.21174
H          3.06409       -2.84818       -2.38336
O         -0.74031        0.66010        0.95579
H         -1.04056       -1.16346       -0.06559
H         -0.26770        0.14118       -1.03541
O          1.44701       -1.76687       -0.55813
H          0.98198       -1.25522        1.42730
H          1.75826        0.04633        0.46144
H          3.50262       -1.53564       -0.25217
H          2.72342       -2.83393        0.70879
O         -2.23263        2.11556        1.72995
