20
2-ETHYL_BUTYRIC_ACID.gamout	Energy:    -386.0514697
C         51.29375       40.83887       -0.60563
C         50.25973       39.86807       -0.04350
C         50.81641       38.42417        0.01242
C         49.74872       40.33356        1.34203
O         52.40654       40.90962        0.18426
O         51.18428       41.49142       -1.62791
C         51.26565       37.86057       -1.34017
C         49.10681       41.72590        1.34798
H         49.41831       39.90250       -0.76893
H         51.66027       38.39816        0.73554
H         50.01901       37.77703        0.44055
H         49.00983       39.57983        1.69366
H         50.59574       40.29986        2.06110
H         53.00076       41.55360       -0.26230
H         51.62058       36.81436       -1.23768
H         50.43684       37.86255       -2.07936
H         52.09934       38.44843       -1.77935
H         48.72635       41.98628        2.35710
H         49.82904       42.51667        1.05439
H         48.25258       41.78147        0.64085
