21
2-ETHYL-1-PENTENE.gamout	Energy:    -274.9429602
C          0.70702        0.73492        0.91927
C          1.39165        2.09773        0.75026
C          2.06643        2.65833        2.03303
C          2.96849        3.81809        1.67711
C          1.02094        3.07053        3.10215
C          4.30428        3.86040        1.83887
C          1.62002        3.48051        4.45245
H          1.43482       -0.04478        1.23076
H          0.24966        0.39819       -0.03441
H         -0.10319        0.75600        1.67775
H          0.65898        2.84929        0.37511
H          2.16898        2.01525       -0.04050
H          2.70166        1.84842        2.46457
H          2.45846        4.69170        1.22314
H          0.31418        2.22594        3.25456
H          0.40733        3.90536        2.69048
H          4.89594        4.73949        1.53484
H          4.85765        3.01454        2.28316
H          0.82893        3.77567        5.17250
H          2.31999        4.33518        4.34614
H          2.19244        2.64424        4.90879
