24
2-ETHYL-M-XYLENE.gamout	Energy:    -389.2138412
C          0.88170        2.80358        0.70343
C          2.04307        3.42894        1.50525
C          2.62213        2.50405        2.56517
C          2.08043        2.49842        3.88216
C          3.68980        1.62056        2.23977
C          0.95711        3.43555        4.27745
C          2.60915        1.61232        4.84450
C          4.30985        1.60391        0.85730
C          4.19269        0.74884        3.22892
C          3.65812        0.73954        4.52454
H          1.20172        1.88395        0.17060
H          0.03773        2.51755        1.36511
H          0.49168        3.51499       -0.05469
H          1.68703        4.36715        1.98012
H          2.84017        3.73781        0.79625
H          1.26612        4.50226        4.21455
H          0.06350        3.32485        3.62733
H          0.63314        3.24758        5.32044
H          2.18603        1.61285        5.86268
H          3.56179        1.41039        0.05981
H          4.79649        2.57293        0.60947
H          5.08647        0.81678        0.78333
H          5.02017        0.06748        2.97061
H          4.06061        0.05237        5.28580
