24
2-ETHYL-1-HEXENE.gamout	Energy:    -314.2299057
C          3.25888        1.62346        2.97304
C          2.64420        2.79651        2.22510
C          2.03150        2.52253        0.86107
C          2.63285        4.03865        2.75744
C          4.46875        0.96378        2.27165
C          0.80772        1.58713        0.88811
C          5.68082        1.89180        2.09996
C          6.87578        1.21653        1.41685
H          2.48013        0.84310        3.13211
H          3.56579        1.96510        3.98561
H          2.80506        2.08044        0.19119
H          1.74375        3.49071        0.39876
H          3.07086        4.24156        3.74893
H          2.18500        4.89192        2.22060
H          4.15961        0.57203        1.27536
H          4.77121        0.06919        2.86188
H          0.38818        1.45504       -0.13102
H          1.05925        0.57605        1.27133
H          0.00403        1.99877        1.53409
H          5.98853        2.27442        3.10015
H          5.37470        2.79022        1.51882
H          7.73360        1.91270        1.30891
H          7.23508        0.33597        1.99262
H          6.61127        0.85578        0.39932
