11
2-FLUOROPROPANE.gamout	Energy:    -218.2075080
C         34.01348        0.96819       -0.03659
C         32.69733        1.73599       -0.10460
C         32.84153        3.23252        0.14801
F         32.14152        1.55185       -1.38167
H         34.46021        1.03804        0.97677
H         33.85274       -0.10315       -0.27205
H         34.74021        1.37963       -0.76797
H         31.97060        1.29991        0.62225
H         31.86393        3.74479        0.04305
H         33.22477        3.42542        1.17146
H         33.54918        3.68251       -0.57940
