12
2-FURANCARBOXYLIC_ACID.gamout	Energy:    -418.3061244
C         -5.74149       -0.35723       -0.12344
O         -4.94531       -1.28908       -0.74279
C         -7.07635       -0.64446       -0.35715
C         -5.13621        0.73976        0.64730
C         -5.77229       -2.16486       -1.36784
C         -7.09587       -1.82174       -1.16773
O         -3.77684        0.69682        0.65466
O         -5.78748        1.60012        1.22046
H         -7.92449       -0.06253        0.02028
H         -5.28252       -2.97864       -1.91445
H         -7.97270       -2.35222       -1.55674
H         -3.50329        1.47130        1.19414
