24
2-HEPTANOL.gamout	Energy:    -351.3370812
C          3.35975        1.54795        0.09306
C          2.08843        0.69036        0.05232
C          3.13605        3.06561        0.03840
C          2.37625       -0.81863        0.00399
C          2.41713        3.62942        1.26989
O          4.43633        3.64628       -0.10458
C          1.11616       -1.69638       -0.03627
C          1.41477       -3.19975       -0.08706
H          3.95471        1.31714        1.00609
H          4.01447        1.28952       -0.76853
H          1.47761        0.97611       -0.83562
H          1.44837        0.90608        0.93850
H          2.51411        3.28749       -0.86912
H          2.99694       -1.10274        0.88529
H          3.00887       -1.04147       -0.88682
H          2.30946        4.73365        1.19486
H          1.39558        3.21044        1.38333
H          2.99639        3.40354        2.19015
H          4.32048        4.61478       -0.12544
H          0.50039       -1.40720       -0.91850
H          0.48312       -1.47257        0.85310
H          0.48352       -3.80300       -0.12005
H          1.99434       -3.52861        0.80207
H          2.01423       -3.46377       -0.98488
