19
2-HEXANONE.gamout	Energy:    -310.8585360
O          1.69656       -1.31623        0.01805
C         -0.91610       -0.21826        0.00796
C         -2.23337        0.57176        0.00046
C          0.32970        0.67089        0.00219
C         -3.48030       -0.32198        0.00614
C          1.65437       -0.09440        0.00894
C          2.92477        0.74911        0.00344
H         -0.87462       -0.90066       -0.86934
H         -0.87666       -0.88701        0.89581
H         -2.26067        1.25264        0.88229
H         -2.25873        1.23895       -0.89180
H          0.33514        1.34975       -0.88369
H          0.33374        1.36350        0.87738
H         -3.50599       -0.97347        0.90575
H         -4.41439        0.27724        0.00031
H         -3.50406       -0.98763       -0.88312
H          2.95510        1.40595       -0.89237
H          2.95374        1.41974        0.88904
H          3.81261        0.08951        0.00925
