21
2-HEXANOL.gamout	Energy:    -312.0556673
C          1.46053        3.78538        1.97333
C          2.18758        2.44818        1.78771
C          3.71857        2.56680        1.82447
C          4.44504        1.22788        1.64000
C          5.97452        1.33845        1.65301
C          6.66351       -0.00123        1.36271
O          6.34833        1.83777        2.94155
H          1.71928        4.25486        2.94667
H          1.73534        4.50969        1.17654
H          0.35796        3.66074        1.94488
H          1.87891        1.98732        0.82075
H          1.85810        1.73217        2.57507
H          4.05458        3.27557        1.03167
H          4.04217        3.01664        2.78866
H          4.14725        0.52163        2.44876
H          4.13660        0.75457        0.68068
H          6.27177        2.07108        0.85673
H          6.40098       -0.74777        2.14145
H          6.36887       -0.40819        0.37225
H          7.76954        0.11184        1.35716
H          7.31717        1.94943        2.94059
