19
2-HEPTYNE.gamout	Energy:    -273.7054234
C          5.48090        1.71652        1.85346
C          4.30784        1.04958        1.09481
C          2.98616        1.60196        1.41101
C          5.67927        3.20173        1.51870
C          1.88690        2.06868        1.68894
C          6.83891        3.84853        2.28550
C          0.57097        2.61663        2.01061
H          6.41097        1.15307        1.61538
H          5.31588        1.59929        2.94778
H          4.48669        1.13245       -0.00262
H          4.30430       -0.04211        1.31476
H          4.73413        3.74824        1.73261
H          5.85015        3.30639        0.42280
H          6.67912        3.79461        3.38378
H          7.80476        3.34332        2.06853
H          6.95769        4.91955        2.02001
H          0.59747        3.72441        2.09582
H         -0.17744        2.36398        1.22872
H          0.18747        2.21961        2.97523
