24
2-HYDROXYPROPYL_NICOTINATE.gamout	Energy:    -629.5478316
O         -1.06608        0.06484        0.08858
O         -3.27425       -1.40703       -0.86721
O         -0.21514        2.14980       -0.22991
N          2.63957       -1.73236        0.13176
C         -3.38708       -0.53336        0.25341
C         -2.40036        0.60409        0.02146
C         -4.81677        0.00150        0.41856
C          1.28642        0.27993       -0.00734
C         -0.05172        0.95058       -0.06656
C          2.44648        1.07921       -0.04972
C          1.44369       -1.12277        0.07929
C          3.69704        0.45104        0.00494
C          3.73651       -0.95374        0.09811
H         -3.07594       -1.05287        1.19500
H         -2.56665        1.06011       -0.97863
H         -2.51651        1.40425        0.78296
H         -5.13503        0.54964       -0.49224
H         -5.52596       -0.83810        0.57704
H         -4.90603        0.68080        1.29210
H         -3.79215       -2.20863       -0.66763
H          2.33937        2.17273       -0.12448
H          0.54986       -1.76967        0.10220
H          4.63018        1.03508       -0.02409
H          4.70956       -1.47716        0.14791
