14
2-IODOBUTANE.gamout	Energy:    -455.5630791
C         34.99681       30.02877       -0.02956
C         33.65838       29.28486       -0.06264
C         32.79404       29.54091       -1.28908
I         34.03688       27.09446        0.11356
C         34.82932       31.55570        0.06663
H         35.58056       29.66648        0.84138
H         35.58947       29.76246       -0.93263
H         33.08953       29.47307        0.87024
H         31.85011       28.96384       -1.25330
H         32.52614       30.61923       -1.33498
H         33.32770       29.28051       -2.22619
H         35.81847       32.04494        0.17386
H         34.34437       31.98368       -0.83492
H         34.21740       31.84246        0.94816
