19
2-ISOPROPOXYETHANOL.gamout	Energy:    -347.9199949
O         -0.20311        0.67342        0.14026
O          2.21686        3.22514        1.14043
C         -1.58422        0.33727        0.32654
C          0.23236        1.82882        0.82658
C         -2.50571        1.23217       -0.51484
C         -1.72485       -1.14279       -0.02987
C          1.71282        2.06078        0.50576
H         -1.84032        0.47584        1.40925
H         -0.34271        2.74370        0.54040
H          0.10319        1.70437        1.93651
H         -3.57192        0.98577       -0.33008
H         -2.36689        2.30642       -0.27515
H         -2.29565        1.09159       -1.59590
H         -2.76698       -1.49252        0.11878
H         -1.05142       -1.76001        0.59805
H         -1.45031       -1.30791       -1.09291
H          2.29010        1.13835        0.76173
H          1.82191        2.21673       -0.58803
H          2.22474        3.05344        2.10077
