24
2-METHYL-1-HEPTENE.gamout	Energy:    -314.2291602
C          1.80450        0.96718        1.65766
C          0.78166        2.06421        1.98463
C          3.18834        1.14956        2.30888
C          6.31524        0.75945        0.84089
C          6.45420        1.54574        1.92977
C          7.73550        1.56101        2.73264
C          5.38315        2.50322        2.43154
C          3.96944        2.39033        1.83879
H          1.39216       -0.01625        1.97636
H          1.92912        0.89576        0.55237
H          1.09553        3.05996        1.60671
H          0.62834        2.16042        3.08160
H         -0.20701        1.84172        1.53091
H          3.79931        0.24136        2.11447
H          3.06806        1.20223        3.41657
H          7.13657        0.10502        0.50579
H          5.39123        0.73914        0.24249
H          8.16003        2.58844        2.79286
H          8.50857        0.89523        2.30011
H          7.55193        1.24097        3.78287
H          5.32111        2.40254        3.54165
H          5.77348        3.53711        2.27245
H          4.02502        2.40369        0.72600
H          3.40586        3.30708        2.11807
