35
2-METHYLDECANE.gamout	Energy:    -433.3075977
C         -2.07963       -0.23591       -2.23337
C         -0.93109       -0.96937       -1.52277
C         -3.33517       -1.09694       -2.44385
C          0.30337       -0.08885       -1.27409
C         -4.53076       -0.37088       -3.10497
C          1.46230       -0.81370       -0.57272
C          2.68657        0.07684       -0.31179
C         -5.80326       -1.23249       -3.03263
C         -4.23684        0.04766       -4.55696
C          3.85104       -0.64686        0.38353
C          5.06665        0.25127        0.64491
H         -1.71168        0.14678       -3.21208
H         -2.35616        0.66809       -1.64212
H         -0.63362       -1.85927       -2.12457
H         -1.29653       -1.37465       -0.55050
H         -3.07731       -1.99436       -3.05447
H         -3.66572       -1.49216       -1.45594
H          0.00512        0.79814       -0.66823
H          0.66165        0.32228       -2.24659
H         -4.71492        0.55885       -2.51523
H          1.77083       -1.69232       -1.18563
H          1.10160       -1.23610        0.39406
H          2.38003        0.95478        0.30342
H          3.04382        0.50188       -1.27894
H         -5.67839       -2.17713       -3.60627
H         -6.68052       -0.70008       -3.45713
H         -6.04919       -1.50947       -1.98557
H         -3.36040        0.72382       -4.62986
H         -4.02724       -0.84225       -5.19091
H         -5.10325        0.57886       -5.00473
H          3.48960       -1.07647        1.34594
H          4.15637       -1.52057       -0.23644
H          5.88706       -0.30409        1.14555
H          4.80081        1.11286        1.29399
H          5.47350        0.66609       -0.30243
