21
2-METHYL-1-HEXENE.gamout	Energy:    -274.9488387
C          4.25943        2.47550        2.41522
C          5.38306        1.52561        2.79087
C          3.00890        1.79150        1.82094
C          6.09107        0.82465        1.65336
C          5.73339        1.32137        4.07951
C          1.88384        2.77953        1.47262
C          0.63546        2.10509        0.89092
H          4.64398        3.21647        1.67454
H          3.95828        3.05854        3.31280
H          2.63154        1.03743        2.54850
H          3.28567        1.22192        0.90497
H          6.92016        0.18449        2.01505
H          5.39604        0.18002        1.07107
H          6.51007        1.56029        0.93094
H          6.54689        0.62939        4.35399
H          5.21737        1.84172        4.90362
H          2.27261        3.53249        0.74943
H          1.60700        3.35406        2.38595
H          0.87119        1.55347       -0.04450
H          0.20016        1.37233        1.60384
H         -0.15644        2.84480        0.65011
