32
2-METHYLNONANE.gamout	Energy:    -394.0248061
C          4.66558       -0.89844        0.02458
C          3.49912        0.06797        0.29582
C          3.74548        1.41989       -0.39636
C          2.15185       -0.56973       -0.11650
C          0.89364        0.21414        0.28753
C         -0.41991       -0.45619       -0.14455
C         -1.67943        0.32274        0.26440
C         -2.99511       -0.33606       -0.17608
C         -4.25397        0.44358        0.23570
C         -5.56320       -0.22001       -0.20916
H          5.63502       -0.46724        0.35304
H          4.52921       -1.86552        0.55309
H          4.75363       -1.12116       -1.06165
H          3.46127        0.24769        1.39699
H          3.79894        1.29256       -1.50029
H          2.94480        2.15748       -0.18281
H          4.70575        1.87231       -0.06952
H          2.15474       -0.72360       -1.22217
H          2.09178       -1.59114        0.32469
H          0.89006        0.35456        1.39383
H          0.92722        1.24027       -0.14320
H         -0.41406       -0.59085       -1.25141
H         -0.46975       -1.48631        0.27900
H         -1.68536        0.45460        1.37164
H         -1.62717        1.35399       -0.15616
H         -2.98918       -0.46461       -1.28388
H         -3.04950       -1.36840        0.24180
H         -4.25757        0.57032        1.34274
H         -4.19722        1.47547       -0.18040
H         -5.60946       -0.32499       -1.31456
H         -5.66650       -1.23876        0.22220
H         -6.45024        0.36765        0.10666
