14
2-METHYLPYRIDINE.gamout	Energy:    -287.3923188
C          3.34519       -4.04691        0.01122
C          3.29711       -2.53821       -0.05465
C          4.47144       -1.75816       -0.15419
N          2.06868       -1.97462       -0.01317
C          4.36324       -0.35992       -0.21204
C          3.08650        0.22169       -0.16890
C          1.97614       -0.63689       -0.06908
H          4.38089       -4.43774       -0.02546
H          2.86277       -4.40529        0.94471
H          2.76920       -4.48590       -0.83023
H          5.45868       -2.24612       -0.18586
H          5.26600        0.26734       -0.28998
H          2.94988        1.31345       -0.21112
H          0.95324       -0.21659       -0.03225
