21
2-METHYL-CIS-3-HEXENE.gamout	Energy:    -274.9425160
C          4.52792        3.31983        2.31978
C          3.24013        3.54061        1.96845
C          5.31565        2.07435        2.66375
C          2.06503        2.60297        1.77689
C          1.55626        2.68006        0.32089
C          0.93592        2.95446        2.77005
C          4.64236        0.69720        2.64290
H          5.15652        4.23010        2.37349
H          2.97480        4.60101        1.77983
H          5.76174        2.24104        3.67348
H          6.20061        2.05422        1.98389
H          2.37813        1.55867        1.97243
H          0.68154        2.01299        0.16458
H          1.23771        3.71417        0.06349
H          2.34611        2.38616       -0.40088
H          0.58886        4.00106        2.62513
H          0.05694        2.28911        2.63131
H          1.27583        2.85874        3.82198
H          5.37581       -0.09040        2.91519
H          3.80649        0.63137        3.36963
H          4.24458        0.44113        1.63929
