24
2-METHYL-3-ETHYL-1-PENTENE.gamout	Energy:    -314.2274991
C          2.91426        3.18792        2.50165
C          2.84789        1.65773        2.49575
C          1.41384        1.16014        2.13188
C          3.93431        0.96119        1.64634
C          2.39422        3.85615        3.75484
C          3.37970        3.91959        1.46502
C          0.96585        1.41788        0.68865
C          5.36267        1.14671        2.17462
H          3.01456        1.33413        3.55135
H          1.37209        0.06799        2.34440
H          0.68595        1.62913        2.83054
H          3.87487        1.30969        0.59206
H          3.69620       -0.12612        1.61241
H          3.01247        3.57590        4.63702
H          1.35605        3.53300        3.99014
H          2.39617        4.96120        3.67022
H          3.77968        3.45668        0.54920
H          3.38171        5.02157        1.50348
H          1.01161        2.49743        0.43441
H         -0.08037        1.07999        0.53494
H          1.59579        0.87378       -0.04600
H          5.46385        0.74692        3.20659
H          5.65072        2.21775        2.20318
H          6.10181        0.61552        1.53929
