24
2-METHYL-3-ETHYL-2-PENTENE.gamout	Energy:    -314.2329688
C          3.71930        0.74145        1.95248
C          3.69629        1.87506        0.90687
C          3.21757        3.20706        1.47116
C          4.32376        4.05085        2.09289
C          1.91387        3.60931        1.42336
C          5.05913        4.94488        1.07383
C          1.42565        4.93636        1.96708
C          0.80035        2.77897        0.81993
H          2.69771        0.52068        2.32636
H          4.13702       -0.19571        1.52664
H          4.34020        1.01542        2.83172
H          3.07930        1.56382        0.03842
H          4.72726        2.00878        0.50747
H          5.06489        3.36873        2.56812
H          3.93078        4.68275        2.91621
H          5.89896        5.49515        1.54898
H          5.48264        4.34866        0.23757
H          4.36911        5.69190        0.62882
H          2.23210        5.58073        2.36377
H          0.89794        5.51347        1.17447
H          0.67977        4.78400        2.78039
H          1.12398        1.78261        0.46566
H         -0.01397        2.62079        1.56259
H          0.33094        3.30947       -0.03993
