19
2-METHYL-3-HEXYNE.gamout	Energy:    -273.7044058
C         16.92303        0.13567        0.35918
C         18.21777        0.82147        0.28813
C         15.79597        0.84314       -0.42077
C         19.29028        1.41243        0.21379
C         20.59687        2.08902        0.15781
C         20.95239        2.73910        1.51498
C         21.70758        1.12255       -0.31624
H         17.04234       -0.90496       -0.02004
H         16.62582        0.02851        1.42744
H         14.84463        0.27913       -0.33142
H         15.62700        1.86880       -0.03458
H         16.04785        0.92606       -1.49759
H         20.52003        2.90654       -0.59763
H         21.91719        3.28404        1.44614
H         20.17050        3.45746        1.83424
H         21.04771        1.96655        2.30611
H         22.67766        1.65530       -0.40324
H         21.46294        0.68225       -1.30376
H         21.83500        0.28857        0.40515
