21
2-METHYL-TRANS-3-HEXENE.gamout	Energy:    -274.9500171
C          1.60893        1.84625        0.63289
C          2.00944        2.11507        2.09969
C          3.24883        1.33322        2.47425
C          0.84220        1.78950        3.05617
C          4.42981        1.85929        2.85882
C          5.65906        1.07426        3.23963
C          6.12686        1.33275        4.68473
H          1.37668        0.77041        0.47429
H          0.70529        2.42782        0.35154
H          2.42536        2.11987       -0.06678
H          2.24690        3.19922        2.19947
H          3.15344        0.22904        2.41690
H          0.57580        0.71108        3.00557
H         -0.06711        2.37026        2.79170
H          1.10413        2.02141        4.10904
H          4.51939        2.96315        2.91790
H          5.46481       -0.01105        3.09356
H          6.49029        1.33830        2.54421
H          6.34469        2.40898        4.85428
H          7.05183        0.76439        4.91595
H          5.34857        1.03280        5.41723
