12
2-METHYLTHIOPHENE.gamout	Energy:    -592.1000192
C          4.75117        2.67957        0.83047
C          3.32271        2.21626        0.78415
C          2.16332        2.95434        0.96349
S          2.92343        0.53805        0.46837
C          0.96378        2.17860        0.84837
C          1.21577        0.84730        0.58040
H          5.27760        2.50777       -0.13288
H          4.78493        3.76633        1.04468
H          5.33512        2.16117        1.62117
H          2.17773        4.03441        1.17409
H         -0.04961        2.59099        0.95950
H          0.49950        0.02734        0.44188
