15
2-MERCAPTOBENZOTHIAZOLE.gamout	Energy:   -1120.5015297
C         -0.95210       -0.06734        0.65062
C         -0.39266       -1.34136        0.90149
C         -0.15828        0.99152        0.18090
C          0.96980       -1.58581        0.68860
C          1.79205       -0.53876        0.21588
C          1.20889        0.74658       -0.03283
S          2.45685        1.84542       -0.60885
N          3.15030       -0.63560       -0.03970
C          3.62878        0.49538       -0.46539
S          5.33706        0.68327       -0.87653
H         -2.02630        0.10146        0.82516
H         -1.03926       -2.15321        1.26976
H         -0.59832        1.98157       -0.01220
H          1.41976       -2.57163        0.87870
H          5.24416        1.99543       -1.23693
