19
2-METHYL-2,4-HEXADIENE.gamout	Energy:    -273.7362897
C         33.98579       29.90485       -0.01308
C         32.77388       29.27320       -0.00738
C         35.30658       29.29499        0.00016
C         31.49008       30.06791       -0.02442
C         32.59768       27.77430        0.01549
C         36.47192       29.99481       -0.00715
C         37.84770       29.39651        0.00531
H         33.97758       31.01108       -0.03012
H         35.36406       28.19089        0.01709
H         31.67574       31.16056       -0.04082
H         30.86924       29.81040       -0.91284
H         30.86119       29.83928        0.86636
H         33.55418       27.21801        0.02637
H         32.01209       27.45940        0.90852
H         32.01604       27.43174       -0.86990
H         36.41661       31.10080       -0.02383
H         37.81659       28.28748        0.02221
H         38.43597       29.70772       -0.88755
H         38.43221       29.73473        0.89080
