10
2-MERCAPTOETHANOL.gamout	Energy:    -553.0246614
S          0.43968       -0.38245        0.41200
C          1.79841        0.83551        0.16733
C          1.30590        2.24962       -0.17328
O          2.37657        3.15978       -0.37225
H         -0.01782       -0.35477       -0.87352
H          2.34116        0.83779        1.13790
H          2.51161        0.47659       -0.60362
H          0.74061        2.21864       -1.13001
H          0.58641        2.58612        0.61301
H          2.79104        3.31777        0.49693
