24
2-METHYL-2-HEPTENE.gamout	Energy:    -314.2345047
C          0.69835        1.44674        1.03268
C          2.00165        1.42078        1.84026
C          2.76737        2.75305        1.79151
C          4.06366        2.80020        2.63769
C          5.13189        1.82118        2.21737
C          6.28282        2.07918        1.54460
C          7.24466        0.96526        1.19787
C          6.71276        3.45336        1.08565
H          0.16165        0.47611        1.08138
H          0.89200        1.66525       -0.03962
H          0.00362        2.22953        1.40690
H          2.65428        0.60321        1.46098
H          1.77827        1.16556        2.90209
H          3.02033        2.98995        0.73262
H          2.09251        3.56902        2.13866
H          4.45850        3.83788        2.61578
H          3.79418        2.59834        3.70096
H          4.94484        0.76326        2.48262
H          7.40540        0.89708        0.09795
H          8.24903        1.14632        1.64435
H          6.88538       -0.02154        1.55300
H          6.82937        3.47997       -0.02124
H          6.00036        4.25253        1.36678
H          7.70904        3.72151        1.50443
