22
2-METHYL-1-PHENYL-1-PROPENE.gamout	Energy:    -387.9897913
C          2.07380        1.35201        3.99104
C          2.54480        1.38468        2.71271
C          3.92716        1.57074        2.22557
C          2.93243        1.45518        5.23019
C          0.59660        1.16862        4.25301
C          4.34286        0.86957        1.06343
C          4.86021        2.45411        2.82752
C          5.64010        1.01089        0.54985
C          6.15884        2.59790        2.31188
C          6.55870        1.87290        1.17592
H          1.80119        1.21512        1.91142
H          2.82361        2.45025        5.71886
H          4.00771        1.29469        5.02275
H          2.60988        0.70466        5.98504
H          0.00846        1.09550        3.31639
H          0.18945        2.01752        4.84780
H          0.40698        0.25110        4.85504
H          3.62858        0.19324        0.56554
H          4.55231        3.06179        3.69111
H          5.93646        0.44576       -0.34845
H          6.86229        3.29444        2.79595
H          7.57697        1.98882        0.77210
