21
2-METHYLNAPHTHALENE.gamout	Energy:    -424.8964498
C          4.66795        1.10848        1.96694
C          5.23846        0.85955        0.58829
C          3.37751        0.70505        2.30599
C          5.44551        1.79193        2.95513
C          2.81855        0.95808        3.59500
C          4.93863        2.05625        4.21854
C          3.61682        1.65237        4.58062
C          1.49563        0.54711        3.94886
C          3.05809        1.90563        5.87056
C          0.98208        0.80810        5.21225
C          1.76883        1.49294        6.18172
H          4.76031       -0.01309        0.09947
H          5.08025        1.73779       -0.07669
H          6.33222        0.67655        0.62537
H          2.75792        0.17217        1.56429
H          6.46931        2.11148        2.69789
H          5.55548        2.58402        4.96455
H          0.88697        0.01693        3.19785
H          3.67108        2.43611        6.61778
H         -0.03910        0.48570        5.47169
H          1.34825        1.69275        7.18018
