13
2-METHOXYETHANOL.gamout	Energy:    -269.3457387
O         -1.73576       -2.15145        0.83704
O          1.13990       -0.16981       -0.05770
C         -1.03095       -1.07907        0.24648
C          0.45412       -1.25696        0.54392
C         -3.12673       -2.08187        0.62457
H         -1.18572       -1.04677       -0.86270
H         -1.37255       -0.09081        0.64859
H          0.77899       -2.24884        0.14166
H          0.59098       -1.29208        1.65363
H         -3.59019       -2.95801        1.12064
H         -3.39147       -2.10727       -0.46276
H         -3.57429       -1.15084        1.05538
H          2.08865       -0.28016        0.13008
