24
2-METHYL-CIS-3-HEPTENE.gamout	Energy:    -314.2308264
C          1.03345       -1.14376       -0.61776
C          1.96331       -0.11037        0.05410
C          1.99656       -0.32082        1.55280
C          1.63969        0.54371        2.52944
C          1.14325        1.96014        2.38399
C          2.04364        2.99657        3.09276
C          1.52643        4.43477        2.96960
C          3.38721       -0.18179       -0.53874
H          0.98766       -0.98712       -1.71660
H          0.00089       -1.08126       -0.21711
H          1.39926       -2.17937       -0.44308
H          1.55433        0.90280       -0.15645
H          2.35261       -1.32244        1.86600
H          1.73903        0.19289        3.57499
H          0.11814        2.03349        2.81945
H          1.03735        2.23561        1.31210
H          3.07271        2.92388        2.67587
H          2.13588        2.72049        4.16797
H          1.45783        4.74941        1.90604
H          2.19226        5.15515        3.48865
H          0.51164        4.53949        3.40998
H          3.84894       -1.17419       -0.34347
H          4.05024        0.58921       -0.09514
H          3.37158       -0.03171       -1.63944
