15
2-METHYL-1-BUTENE.gamout	Energy:    -196.3830254
C          1.16108        1.18452        0.16222
C          0.54775       -0.17360       -0.09678
C          1.24332       -1.31563        0.09581
C         -0.88480       -0.19230       -0.60242
C         -1.92693        0.35323        0.39365
H          1.18471        1.79297       -0.76954
H          0.57158        1.76808        0.90250
H          2.19667        1.10169        0.54750
H          0.79216       -2.30273       -0.10056
H          2.28614       -1.30215        0.45440
H         -0.93807        0.40552       -1.54299
H         -1.15774       -1.23214       -0.88313
H         -1.95269       -0.26120        1.31768
H         -1.71259        1.40022        0.69364
H         -2.94301        0.34268       -0.05264
