26
2-METHYLHEPTANE.gamout	Energy:    -315.4591066
C          5.19810        2.35211        1.94003
C          4.10243        1.32021        2.25007
C          6.41044        1.82193        1.13901
C          2.91327        1.90261        3.03029
C          7.28369        2.98473        0.63728
C          7.25086        0.81839        1.94918
C          1.78269        0.89639        3.29540
C          0.59757        1.49085        4.06681
H          5.56709        2.79909        2.89369
H          4.73804        3.19367        1.37337
H          4.52770        0.46758        2.82648
H          3.73535        0.88101        1.29305
H          6.00907        1.28799        0.24430
H          2.50114        2.77855        2.47652
H          3.27679        2.31131        4.00211
H          6.70572        3.68226       -0.00499
H          7.68843        3.57320        1.49006
H          8.14927        2.62010        0.04431
H          8.08736        0.40749        1.34520
H          6.64764       -0.04293        2.30345
H          7.69241        1.30775        2.84529
H          2.19225        0.02325        3.85341
H          1.42697        0.48609        2.32250
H          0.90987        1.86182        5.06666
H          0.15181        2.35052        3.52163
H         -0.20660        0.74244        4.22425
