16
2-METHYL-TRANS-1,3-PENTADIENE.gamout	Energy:    -234.4424407
C          0.97069        0.98502        1.15227
C          1.76726        2.07988        1.07438
C          1.19428        3.46901        0.88226
C          3.24154        2.00534        1.19024
C          4.03029        0.99554        0.75164
C          5.52319        0.93723        0.89843
H         -0.12256        1.06376        1.03555
H          1.38485       -0.01750        1.34562
H          1.49630        4.13967        1.71712
H          1.57786        3.93681       -0.05109
H          0.08729        3.45749        0.83509
H          3.73280        2.88414        1.65386
H          3.55046        0.14327        0.23382
H          6.02623        0.84805       -0.09028
H          5.92389        1.83703        1.40895
H          5.83626        0.04433        1.48520
