15
2-METHYL-2-PROPANETHIOL.gamout	Energy:    -556.4369423
C          3.70054        2.08725        0.99878
C          2.25529        2.14891        1.52943
C          1.94735        0.92089        2.40380
C          2.02137        3.45333        2.31088
S          1.17799        2.12494       -0.00750
H          4.41598        2.09965        1.84819
H          3.92948        2.95583        0.34691
H          3.87787        1.15964        0.41585
H          2.09646       -0.02145        1.83899
H          0.90013        0.93785        2.77166
H          2.61622        0.90544        3.29284
H          0.97503        3.52623        2.67483
H          2.22555        4.34148        1.67930
H          2.69044        3.49520        3.19895
H         -0.01735        2.18355        0.64974
