32
2-METHYL-5-ETHYLHEPTANE.gamout	Energy:    -394.0183931
C          3.13752        3.45952        3.08905
C          1.58057        3.49144        3.10955
C          1.00620        4.43981        2.02970
C          1.01192        3.87065        4.49758
C          3.75331        2.05419        3.20176
C          1.20436        3.96516        0.58461
C          1.39944        2.94983        5.66071
C          5.29267        2.00608        3.33402
C          6.01323        2.58683        2.10429
C          5.76584        0.56880        3.61401
H          3.50081        3.93744        2.15304
H          3.52708        4.09988        3.91501
H          1.21372        2.46342        2.86888
H          1.45984        5.44980        2.16117
H         -0.08349        4.57313        2.21618
H         -0.09874        3.90312        4.42148
H          1.32735        4.91463        4.73166
H          3.31064        1.53241        4.07934
H          3.44983        1.45145        2.31289
H          0.70962        2.98512        0.41203
H          2.27772        3.84248        0.32529
H          0.77495        4.68615       -0.14210
H          2.49406        2.94426        5.84725
H          1.08905        1.89947        5.47145
H          0.91269        3.27256        6.60501
H          5.56938        2.63200        4.21662
H          5.74702        2.01976        1.18458
H          7.11632        2.53084        2.22051
H          5.75538        3.65143        1.92728
H          6.86581        0.52093        3.75919
H          5.51212       -0.10496        2.76608
H          5.28649        0.15178        4.52487
