19
2-METHYL-1,5-HEXADIENE.gamout	Energy:    -273.7160999
C          2.27794        2.00199        3.00611
C          1.34009        1.92405        1.81406
C          3.77844        1.83798        2.64185
C          1.41331        3.05991        0.81931
C          0.48342        0.89129        1.65814
C          4.68983        1.94703        3.83567
C          5.51519        0.98164        4.28090
H          2.14201        2.98656        3.51288
H          2.00580        1.22346        3.74982
H          4.05922        2.62302        1.90206
H          3.92834        0.85811        2.13864
H          0.67755        2.94238       -0.00109
H          2.42241        3.13725        0.35752
H          1.22291        4.03741        1.31620
H          0.43234        0.07195        2.39428
H         -0.19681        0.83174        0.79228
H          4.65282        2.90800        4.38597
H          6.15269        1.12990        5.16754
H          5.58717        0.00528        3.77050
