20
2-METHYLPIPERIDINE.gamout	Energy:    -291.0013979
C         -1.29356       -0.07156        2.43892
C         -2.19026        0.21086        1.23035
C         -3.32858       -0.81833        1.09061
N         -1.38616        0.19430        0.00093
C         -4.17321       -0.56360       -0.17043
C         -2.15181        0.54910       -1.19509
C         -3.27782       -0.46981       -1.41778
H         -0.49553        0.69643        2.53268
H         -1.87730       -0.06355        3.38227
H         -0.80210       -1.06159        2.33442
H         -2.67691        1.21768        1.38310
H         -2.87116       -1.83219        1.03637
H         -3.96415       -0.79273        2.00230
H         -0.58492        0.82980        0.10583
H         -4.93871       -1.35961       -0.29359
H         -4.73179        0.39354       -0.04944
H         -1.46491        0.56306       -2.06875
H         -2.61069        1.57603       -1.12853
H         -2.82098       -1.46296       -1.62504
H         -3.87148       -0.18675       -2.31365
