23
2-METHYLHEXANE.gamout	Energy:    -276.1750680
C          2.72115        1.27290        0.87485
C          1.66024        1.94394        1.78084
C          3.98655        0.73593        1.56995
C          1.06084        0.96380        2.80379
C          0.55420        2.58320        0.92319
C          4.92852        1.81698        2.12667
C          6.19931        1.24709        2.77050
H          3.02882        2.00510        0.09266
H          2.22684        0.43920        0.32383
H          2.16029        2.76506        2.34657
H          3.70170        0.04177        2.39346
H          4.55578        0.11160        0.84441
H          1.83017        0.53858        3.48101
H          0.56083        0.11256        2.29070
H          0.29974        1.46070        3.44211
H          0.03081        1.81264        0.31490
H         -0.21111        3.08693        1.55096
H          0.96566        3.33787        0.22020
H          5.21022        2.51373        1.30388
H          4.38897        2.44048        2.87478
H          6.87636        2.05242        3.12438
H          5.96010        0.60472        3.64507
H          6.77209        0.62152        2.05204
