24
2-METHYL-TRANS-3-HEPTENE.gamout	Energy:    -314.2327549
C          1.48402        1.61976        4.49092
C          1.44058        2.43457        3.41680
C          2.04518        1.97647        5.84986
C          0.87028        2.08847        2.06565
C          3.21326        1.04192        6.22774
C          0.93956        1.94154        6.92737
C          1.88158        2.20403        0.90113
C          3.03236        1.19331        0.96219
H          1.06821        0.59540        4.39561
H          1.85799        3.45708        3.52062
H          2.43845        3.01762        5.79340
H          0.44399        1.06022        2.09240
H          0.01814        2.77431        1.84823
H          4.03232        1.09233        5.48091
H          2.87455       -0.01586        6.28256
H          3.63812        1.30653        7.21975
H          0.49753        0.92463        7.01149
H          1.34272        2.21358        7.92627
H          0.11725        2.64544        6.68465
H          1.32962        2.08185       -0.05734
H          2.29415        3.23889        0.88323
H          3.73182        1.32509        0.11049
H          2.65478        0.14844        0.92533
H          3.61893        1.29546        1.89964
