20
2-METHYLQUINOLINE.gamout	Energy:    -440.9288219
C         -1.59219       -1.40639        1.56209
C         -0.55611       -0.31972        1.73800
N         -1.16648       -2.61539        1.20883
C         -2.98211       -1.11290        1.77591
C         -2.08258       -3.62019        1.04165
C         -3.92429       -2.11290        1.61205
C         -3.50030       -3.42199        1.23320
C         -1.61550       -4.91570        0.66301
C         -4.39340       -4.51755        1.04004
C         -2.50911       -5.96428        0.48241
C         -3.90663       -5.76605        0.67130
H         -0.57519        0.09036        2.77069
H          0.45040       -0.72952        1.53283
H         -0.74685        0.53092        1.04880
H         -3.28545       -0.09460        2.06780
H         -4.99760       -1.91432        1.76980
H         -0.53109       -5.04231        0.52336
H         -5.47438       -4.35779        1.18806
H         -2.13761       -6.95964        0.19049
H         -4.60130       -6.60811        0.52377
