20
2-METHYLPENTANE.gamout	Energy:    -236.8936030
C          1.29531        1.62439        2.15892
C          0.42945        2.86540        1.89009
C         -1.07584        2.58926        1.99793
C          2.82140        1.81804        2.00665
C          3.39290        2.86181        2.98276
C          3.55411        0.47340        2.16097
H          0.97582        0.81236        1.46529
H          1.08186        1.23902        3.18475
H          0.66407        3.26045        0.87469
H          0.70284        3.67955        2.59741
H         -1.67615        3.50076        1.79686
H         -1.34843        2.22796        3.01305
H         -1.39819        1.80941        1.27477
H          3.00547        2.18736        0.96913
H          4.48958        2.97465        2.84946
H          3.21789        2.55408        4.03767
H          2.93770        3.86399        2.84631
H          3.40082        0.05267        3.17917
H          4.64816        0.58550        2.00791
H          3.18478       -0.27899        1.43239
