29
2-METHYLOCTANE.gamout	Energy:    -354.7420270
C          3.10745        1.46388        0.33027
C          2.87270        0.09118       -0.32394
C          4.06233       -0.84751       -0.05614
C          1.54683       -0.56230        0.13103
C          0.26524        0.18676       -0.26468
C         -1.02597       -0.50160        0.20498
C         -2.30864        0.24128       -0.19765
C         -3.60325       -0.43780        0.27580
C         -4.87750        0.31024       -0.13447
H          4.05127        1.92612       -0.02903
H          2.28784        2.18021        0.11614
H          3.18715        1.36613        1.43570
H          2.80748        0.24447       -1.42781
H          4.17702       -1.04338        1.03271
H          3.93169       -1.82877       -0.55941
H          5.01657       -0.40721       -0.41548
H          1.49906       -1.59437       -0.28640
H          1.57500       -0.69151        1.23948
H          0.28471        1.22246        0.14359
H          0.23806        0.30341       -1.37342
H         -1.06024       -1.54098       -0.19731
H         -0.99840       -0.61397        1.31399
H         -2.27373        1.28176        0.20212
H         -2.33571        0.35155       -1.30710
H         -3.63636       -1.47795       -0.12212
H         -3.57425       -0.54566        1.38443
H         -4.95614        0.40006       -1.23939
H         -5.79195       -0.20740        0.22303
H         -4.89497        1.34126        0.28016
