21
2-METHYL-3-PENTANOL.gamout	Energy:    -312.0555433
C         -1.55281        1.63779       -0.05732
C         -1.17119        0.19326        0.30898
C         -2.24057       -0.79544       -0.18646
C          0.23511       -0.20802       -0.21437
C          1.38131        0.67744        0.31259
C          2.75716        0.27402       -0.22930
O          0.50778       -1.59113        0.04745
H         -0.86407        2.38881        0.38006
H         -1.55279        1.78137       -1.16032
H         -2.57391        1.88064        0.30468
H         -1.12576        0.12406        1.42490
H         -2.33947       -0.74488       -1.29297
H         -1.97467       -1.83810        0.07359
H         -3.23436       -0.56278        0.25009
H          0.21716       -0.14026       -1.32834
H          1.17455        1.73956        0.06046
H          1.37691        0.62230        1.42797
H          2.96653       -0.79234       -0.01122
H          2.80534        0.39954       -1.33207
H          3.56730        0.88859        0.21449
H          0.53713       -1.68928        1.02021
