13
2-METHACRYLAMIDE.gamout	Energy:    -286.4045661
C          3.31500        1.31289        1.87677
N          3.99372        2.23320        2.64325
O          3.89489        0.47351        1.18669
C          1.80024        1.36773        1.94701
C          1.10128        0.78521        0.74683
C          1.15265        1.81851        3.04577
H          5.01234        2.23951        2.56375
H          3.53176        3.06825        3.00226
H          1.32833        1.37021       -0.17058
H          0.00329        0.75461        0.88653
H          1.48247       -0.23936        0.55734
H          0.05145        1.80870        3.10558
H          1.69168        2.17254        3.93959
