12
2-METHYLFURAN.gamout	Energy:    -269.1494248
C         -5.69857       -0.70724        0.04776
O         -5.15766       -1.80653       -0.56191
C         -6.96476       -0.46978       -0.43142
C         -6.08731       -2.28934       -1.45097
C         -7.21782       -1.49859       -1.40628
C         -5.70438       -3.49860       -2.23523
H         -5.06297       -0.21247        0.78985
H         -7.63765        0.34066       -0.12711
H         -8.12689       -1.63774       -2.00339
H         -5.48217       -4.36294       -1.57261
H         -6.53138       -3.78714       -2.91203
H         -4.79900       -3.31667       -2.85376
