18
2-METHYL-1-BUTANOL.gamout	Energy:    -272.7669333
C         -2.33371        0.82208       -0.00753
C         -0.90929        1.10099       -0.50622
H         -2.68360       -0.18978       -0.29853
H         -3.05580        1.55295       -0.42719
H         -2.39290        0.89109        1.09987
C          0.17901        0.18690        0.09743
H         -0.64787        2.16011       -0.28229
H         -0.88093        1.01028       -1.61737
C         -0.02600       -1.30187       -0.22656
H         -0.96278       -1.69883        0.21471
H          0.81890       -1.89771        0.17135
H         -0.07181       -1.46638       -1.32636
C          1.57146        0.65618       -0.34682
H          0.15077        0.30474        1.20712
O          2.55962       -0.11350        0.32717
H          1.67890        1.74842       -0.12362
H          1.65170        0.54632       -1.46017
H          3.42855        0.13197       -0.03793
