16
2-METHYL-1,4-PENTADIENE.gamout	Energy:    -234.4341040
C          3.28879        2.08671        1.77285
C          1.80766        1.81502        2.01472
C          4.19072        1.02063        2.35473
C          1.34284        1.89028        3.44899
C          0.97314        1.51684        0.99579
C          5.13471        1.21914        3.29311
H          3.46480        2.15433        0.67607
H          3.56647        3.07388        2.20893
H          4.03147       -0.00091        1.95948
H          1.51083        2.90721        3.86960
H          0.26602        1.64931        3.54774
H          1.92067        1.19132        4.09232
H         -0.09655        1.31181        1.16796
H          1.33109        1.47086       -0.04631
H          5.75801        0.39142        3.66850
H          5.32516        2.22083        3.71682
