24
2-METHYL-2-HEXANOL.gamout	Energy:    -351.3408081
C          2.58135       -1.02595       -0.06804
C          1.44251        0.01479       -0.05777
C          1.65108        1.04656       -1.18362
C          0.07910       -0.70868       -0.17215
C         -1.16396        0.18323       -0.04748
C         -2.47794       -0.61321        0.00567
C         -3.72163        0.26928        0.17168
O          1.41503        0.67967        1.21926
H          3.56900       -0.52993        0.05522
H          2.44898       -1.74269        0.76763
H          2.61015       -1.59581       -1.02055
H          1.60422        0.57309       -2.18685
H          0.88565        1.84691       -1.13708
H          2.65010        1.52643       -1.09021
H          0.05991       -1.27089       -1.13253
H          0.05067       -1.47407        0.63605
H         -1.06213        0.79757        0.87344
H         -1.21045        0.90342       -0.89592
H         -2.57690       -1.23011       -0.91725
H         -2.42449       -1.34274        0.84616
H         -3.66628        0.86924        1.10529
H         -3.82701        0.98370       -0.67302
H         -4.65191       -0.33462        0.21652
H          2.25555        1.16889        1.30456
