16
2-METHYL-CIS-1,3-PENTADIENE.gamout	Energy:    -234.4446222
C          1.12736        3.72683        0.72338
C          2.12567        2.83534        0.93835
C          2.10639        1.72729        1.90175
C          3.16595        0.87775        2.06073
C          0.85783        1.53975        2.73740
C          4.48601        0.87674        1.34613
H          0.17530        3.69396        1.27721
H          1.23672        4.52696       -0.02538
H          3.04430        2.94565        0.33653
H          3.04649        0.07803        2.81615
H          0.95975        0.67510        3.42242
H          0.64185        2.44038        3.35288
H         -0.03666        1.36787        2.09963
H          4.58323        1.67952        0.58995
H          5.32752        0.98924        2.06584
H          4.65348       -0.09411        0.82801
