16
2-METHYL-2,3-PENTADIENE.gamout	Energy:    -234.4292119
C          0.96931        0.81583        0.17194
C          2.34700        0.19301        0.02855
C          2.89823       -0.01633       -1.15994
C          3.44556       -0.22735       -2.34535
C          3.30125       -1.48636       -3.17303
C          3.05975       -0.17340        1.31806
H          1.02214        1.75516        0.76632
H          0.28186        0.13073        0.71671
H          0.51810        1.05132       -0.81125
H          4.06830        0.57858       -2.78583
H          2.66680       -2.23839       -2.66371
H          4.29382       -1.94684       -3.37306
H          2.84749       -1.26319       -4.16375
H          2.45690       -0.89967        1.90781
H          3.19708        0.72482        1.96111
H          4.05521       -0.61993        1.12985
