18
2-METHYL-2-BUTANOL.gamout	Energy:    -272.7756019
C          1.82944        0.87488       -0.11917
O          3.14188        1.39921       -0.40024
C          0.95644        2.10969        0.14781
C          1.30970        0.10626       -1.35034
C          1.89134       -0.07946        1.10647
C          2.46406        0.53916        2.38600
H          3.70956        0.63392       -0.61604
H         -0.07977        1.81735        0.41385
H          1.37579        2.71775        0.97372
H          0.92226        2.74884       -0.75747
H          0.27689       -0.27150       -1.19731
H          1.95578       -0.77301       -1.56670
H          1.31223        0.76278       -2.24439
H          0.87307       -0.48813        1.29479
H          2.51485       -0.95556        0.81000
H          2.61275       -0.23004        3.17160
H          3.44330        1.01700        2.17803
H          1.79544        1.31668        2.81045
