15
2-METHYL-1-PROPANETHIOL.gamout	Energy:    -556.4348392
C          1.62340        2.63933        1.37901
S         -0.00578        1.78712        1.22916
C          2.86240        1.82484        0.95646
C          3.10614        0.61650        1.87483
C          4.09615        2.74411        0.90138
H          1.50593        3.52757        0.72231
H          1.73625        3.02591        2.41558
H          0.14525        0.93508        2.28319
H          2.66437        1.44304       -0.07147
H          4.00232        0.04541        1.55530
H          3.27134        0.93936        2.92669
H          2.24340       -0.08100        1.85926
H          4.33064        3.16552        1.90351
H          4.99398        2.18991        0.55676
H          3.94187        3.59753        0.20740
