21
2-METHYL-2-PENTANOL.gamout	Energy:    -312.0579282
C          1.95594       -1.15345       -0.19122
C          0.91827       -0.01932       -0.06420
C          1.17824        1.06636       -1.12713
C         -0.50898       -0.60790       -0.16634
C         -1.66101        0.37979        0.06969
C         -3.03362       -0.30439        0.09862
O          1.00304        0.55578        1.25399
H          2.98740       -0.75773       -0.06501
H          1.78327       -1.91531        0.59585
H          1.90767       -1.65202       -1.18228
H          1.04568        0.67344       -2.15704
H          0.49211        1.92609       -0.99025
H          2.22007        1.44748       -1.04781
H         -0.61692       -1.09917       -1.15964
H         -0.57794       -1.42136        0.59110
H         -1.47275        0.90301        1.03109
H         -1.65925        1.16815       -0.71583
H         -3.25570       -0.81682       -0.86265
H         -3.08485       -1.07362        0.89930
H         -3.85065        0.42345        0.28446
H          1.87749        0.98424        1.32320
