15
2-METHYL-2-BUTENE.gamout	Energy:    -196.3878166
C          4.34408        0.92591        1.18103
C          2.85798        0.98584        0.96276
C          2.02984        2.05425        1.08047
C          0.54653        1.91731        0.81759
C          2.47953        3.44409        1.46818
H          4.87076        0.58528        0.26148
H          4.78375        1.89937        1.47559
H          4.60368        0.18856        1.97347
H          2.39003        0.02661        0.66847
H         -0.05007        2.21865        1.70820
H          0.22054        2.58467       -0.01213
H          0.26601        0.87797        0.55302
H          1.95438        3.79168        2.38622
H          3.56804        3.51504        1.65661
H          2.22566        4.17903        0.67146
