15
2-METHYL-1-PROPANOL.gamout	Energy:    -233.4855532
O          1.05708        1.31197        0.85579
C         -1.27397        0.82238        0.50319
C          0.14043        0.24557        0.64385
C         -1.37990        1.76055       -0.70879
C         -2.31578       -0.30620        0.45505
H         -1.45106        1.42798        1.42280
H          0.15579       -0.48378        1.49398
H          0.38697       -0.33629       -0.28326
H         -2.37296        2.25511       -0.75059
H         -1.24418        1.19692       -1.65858
H         -0.60049        2.54709       -0.66532
H         -3.34634        0.10262        0.40696
H         -2.25449       -0.95963        1.35109
H         -2.17296       -0.95001       -0.44089
H          1.95508        0.93507        0.86890
