21
2-METHYL-2-HEXENE.gamout	Energy:    -274.9529603
C          1.27662        1.16297        4.66114
C          1.76681        1.89860        5.69096
C          1.87091        0.94115        3.29502
C          1.00351        2.00687        6.99306
C          3.07404        2.65614        5.65930
C          0.98715        1.47803        2.14621
C          1.55822        1.18144        0.75418
H          0.30182        0.66374        4.82738
H          2.01552       -0.15479        3.13780
H          2.88278        1.39458        3.21995
H          0.05477        1.43459        6.96411
H          0.75990        3.06703        7.23165
H          1.60814        1.62937        7.84864
H          3.61057        2.56956        4.69479
H          2.90675        3.73849        5.85834
H          3.75847        2.29837        6.46124
H         -0.03216        1.03848        2.23458
H          0.85581        2.57539        2.27681
H          1.66754        0.08848        0.58442
H          0.90553        1.57944       -0.05056
H          2.56330        1.63695        0.62389
