19
2-NAPHTHALENOL.gamout	Energy:    -460.7800900
C          5.95141        0.80442        3.04543
O          7.18237        0.94901        3.61909
C          4.84571        0.62635        3.87635
C          5.77865        0.83147        1.62735
C          3.54004        0.46963        3.32833
C          4.51704        0.68100        1.07049
C          3.36312        0.49630        1.89094
C          2.38466        0.28461        4.15227
C          2.05212        0.33818        1.34751
C          1.12336        0.13367        3.59062
C          0.95213        0.16020        2.17690
H          7.84308        1.06295        2.91007
H          4.99635        0.60789        4.96693
H          6.65938        0.97296        0.97638
H          4.39758        0.70339       -0.02513
H          2.51021        0.26308        5.24722
H          1.92351        0.35939        0.25248
H          0.24697       -0.00782        4.24365
H         -0.05316        0.03953        1.74272
