13
2-NITROPROPANE.gamout	Energy:    -323.4217725
N         -0.75517        0.00016        0.00761
O         -1.63377        0.01047       -0.85263
O         -0.93687       -0.01228        1.22532
C          0.70661        0.00359       -0.47470
C          1.38164        1.28063        0.02729
C          1.38087       -1.28209        0.00554
H          0.60970        0.01312       -1.57785
H          1.41046        1.29590        1.13501
H          2.42160        1.32420       -0.35539
H          0.84832        2.18575       -0.32755
H          1.40995       -1.31584        1.11281
H          0.84683       -2.18078       -0.36425
H          2.42072       -1.32009       -0.37806
