17
2-NORBORNENE.gamout	Energy:    -272.5245347
C          0.03654       -1.13129       -0.32010
C          0.03626        1.13129       -0.32011
C          0.02242       -0.00000       -1.37968
C         -1.26835       -0.78166        0.48855
C         -1.26855        0.78135        0.48854
C          1.20383       -0.67689        0.55154
C          1.20366        0.67720        0.55154
H          0.07706       -2.17394       -0.69167
H          0.07651        2.17395       -0.69169
H          0.92773        0.00011       -2.02035
H         -0.88883       -0.00012       -2.01584
H         -1.24517       -1.21427        1.50912
H         -2.16422       -1.18909       -0.02579
H         -2.16451        1.18856       -0.02580
H         -1.24548        1.21398        1.50911
H          1.83425       -1.34526        1.15800
H          1.83391        1.34574        1.15799
