30
2-NONANOL.gamout	Energy:    -429.9027913
C         68.96398       30.04606       -0.05457
C         67.65185       29.24487       -0.08417
C         67.86621       27.72593       -0.10222
C         68.76346       31.56850       -0.02852
C         66.58591       26.88192       -0.01989
C         70.07332       32.37123        0.01517
C         65.67604       27.01531       -1.24699
O         67.01885       25.52949        0.15351
C         69.87146       33.89414        0.04899
C         71.18171       34.68978        0.10187
H         69.55734       29.73630        0.83633
H         69.58664       29.76787       -0.93605
H         67.05382       29.56164       -0.96838
H         67.04009       29.52137        0.80609
H         68.50049       27.42561        0.76079
H         68.42825       27.41997       -1.01357
H         68.16918       31.88025       -0.91849
H         68.13992       31.84144        0.85453
H         66.01298       27.22502        0.88199
H         70.66325       32.05796        0.90764
H         70.70237       32.10096       -0.86480
H         64.77626       26.36949       -1.14511
H         65.31348       28.05534       -1.38476
H         66.21672       26.70500       -2.16590
H         66.21951       24.97151        0.19414
H         69.27979       34.20506       -0.84206
H         69.24170       34.15821        0.92935
H         70.99747       35.78397        0.12813
H         71.77482       34.42906        1.00459
H         71.82204       34.48120       -0.78228
