25
2-NONYNE.gamout	Energy:    -352.2697668
C          4.42567        1.64114        2.11003
C          5.06995        2.95877        1.65248
C          6.44239        3.24246        2.31202
C          3.10067        1.28699        1.41103
C          7.48789        2.26696        1.98471
C          1.92639        2.23520        1.70813
C          8.35370        1.44827        1.69573
C          0.61119        1.79737        1.05122
C          9.39275        0.47826        1.35683
H          4.26101        1.67885        3.21241
H          5.15547        0.81867        1.94180
H          4.40119        3.81756        1.88017
H          5.19835        2.94679        0.54681
H          6.78741        4.25770        2.01145
H          6.31447        3.28686        3.41870
H          3.26629        1.24251        0.30912
H          2.80843        0.25475        1.70998
H          1.78716        2.30472        2.81161
H          2.17913        3.26571        1.37199
H         -0.21890        2.49664        1.28337
H          0.70714        1.75004       -0.05488
H          0.30400        0.78713        1.39741
H         10.39992        0.94818        1.34096
H          9.42859       -0.35650        2.08977
H          9.22195        0.03072        0.35391
