25
2-OCTANONE.gamout	Energy:    -389.4241701
C          2.06144        2.24673        2.86424
C          2.63884        1.66479        4.15592
C          3.27059        2.71403        5.08198
C          1.51420        1.19914        1.89166
C          3.83551        2.12359        6.38228
C          0.83650        1.72997        0.63279
O          1.61853        0.00057        2.10868
C          4.53201        3.14935        7.28976
C          5.07909        2.54715        8.58945
H          1.25300        2.98643        3.07299
H          2.83178        2.83474        2.30956
H          1.83541        1.11585        4.69514
H          3.38932        0.88766        3.89126
H          2.51716        3.49791        5.33208
H          4.08358        3.24722        4.53578
H          4.55258        1.30686        6.13233
H          3.01196        1.63031        6.94897
H          1.50703        2.42582        0.08486
H         -0.07023        2.31335        0.90298
H          0.54894        0.88818       -0.02422
H          3.81835        3.97066        7.53122
H          5.36108        3.63321        6.72425
H          5.81769        1.74240        8.38379
H          4.26698        2.09766        9.20055
H          5.58505        3.31020        9.21677
