22
2-OCTYNE.gamout	Energy:    -312.9883431
C          5.52944        0.79780        1.30409
C          4.51530        1.96308        1.37042
C          3.06735        1.50895        1.14090
C          6.92374        1.19680        1.51457
C          2.03891        2.64920        1.19897
C          8.08725        1.53923        1.69186
C          0.59616        2.18492        0.96626
C          9.47887        1.93244        1.90151
H          5.44041        0.29081        0.31482
H          5.24981        0.02362        2.05624
H          4.60517        2.46381        2.36004
H          4.79575        2.72957        0.61423
H          2.99401        1.00026        0.15111
H          2.79900        0.73286        1.89527
H          2.11220        3.15747        2.18752
H          2.30914        3.42326        0.44493
H         -0.12126        3.03030        1.01291
H          0.28260        1.43966        1.72869
H          0.47950        1.70492       -0.02936
H          9.59304        2.57696        2.79970
H          9.88024        2.49943        1.03383
H         10.13351        1.04578        2.04664
