13
2-PENTYNE.gamout	Energy:    -195.1394785
C          4.51533        0.76768        0.95522
C          3.05540        0.85575        1.06479
C          1.83736        0.95211        1.16257
C          5.24532        2.08931        1.27464
C          0.38465        1.06119        1.27796
H          4.88441       -0.03440        1.63441
H          4.78457        0.43520       -0.07323
H          5.02763        2.42502        2.30886
H          6.34313        1.96277        1.17637
H          4.92722        2.89658        0.58406
H         -0.11640        0.91889        0.29630
H          0.08169        2.05920        1.66215
H         -0.02828        0.29998        1.97456
