22
2-PHENYL_PROPANOL.gamout	Energy:    -425.0816287
C          1.35872        1.85215        4.57738
C          1.64493        2.95776        3.54745
C          0.33177        3.48059        2.93116
C          2.64403        2.50551        2.48450
O          2.56462        1.53505        5.25282
C          3.90633        3.12351        2.36721
C          2.33021        1.46203        1.58550
C          4.82840        2.71448        1.38726
C          3.24740        1.04715        0.60569
C          4.50238        1.67322        0.50202
H          0.92480        0.96343        4.05122
H          0.56904        2.21828        5.28333
H          2.11779        3.78914        4.11706
H         -0.20890        2.68259        2.37915
H          0.53092        4.30216        2.21396
H         -0.35293        3.86900        3.71486
H          2.39909        0.75176        5.80799
H          4.17460        3.93554        3.06324
H          1.35145        0.95738        1.64958
H          5.80936        3.21183        1.31736
H          2.97957        0.22846       -0.08182
H          5.22255        1.34887       -0.26619
