27
2-PROPYLNAPHTHALENE.gamout	Energy:    -503.4621470
C          5.81058        1.47258       -0.70472
C          6.96122        1.53132        0.07161
C          4.57953        0.99635       -0.15723
C          6.93184        1.11647        1.43306
C          5.75081        0.64928        1.99640
C          4.55085        0.57569        1.22570
C          3.31438        0.10641        1.76604
C          3.37866        0.92437       -0.92649
C          2.18015        0.46263       -0.38533
C          2.16851        0.05268        0.98613
C          0.92208        0.36022       -1.22396
C         -0.67979       -1.16904       -2.52684
C          0.60140       -1.07835       -1.68981
H          5.83208        1.79400       -1.75906
H          7.90262        1.90045       -0.36563
H          7.84995        1.16722        2.03978
H          5.72545        0.32824        3.05084
H          3.28272       -0.20939        2.82186
H          3.41010        1.25103       -1.98023
H          1.22443       -0.30650        1.42905
H          0.05547        0.74942       -0.64242
H          1.01868        1.01727       -2.11621
H         -0.88535       -2.21196       -2.84576
H         -1.56524       -0.81346       -1.95743
H         -0.60818       -0.54766       -3.44541
H          1.46521       -1.46687       -2.27337
H          0.51788       -1.73866       -0.79752
