12
2-PROPANOL.gamout	Energy:    -194.2067876
C          0.61267        1.20149        2.00088
C          2.07480        1.65590        2.10684
C          2.94797        1.09448        0.98530
O          2.18051        3.08008        2.03121
H          0.16779        1.56420        1.05030
H          0.52288        0.09529        2.03268
H          0.00609        1.60596        2.84057
H          2.48710        1.28976        3.08400
H          2.95572       -0.01418        1.00100
H          2.56861        1.43325       -0.00169
H          3.99005        1.45701        1.09334
H          1.58259        3.45011        2.70762
