12
2-PROPANETHIOL.gamout	Energy:    -517.1535419
C          3.45101        1.16917        1.73803
C          2.15343        1.60858        1.05018
C          0.89581        1.09972        1.76386
S          2.10090        3.44874        0.78785
H          4.34319        1.52706        1.18692
H          3.50600        1.56974        2.77336
H          3.50358        0.06022        1.80593
H          2.15286        1.23032        0.00351
H          0.84051        1.49656        2.80062
H         -0.02525        1.40939        1.23142
H          0.90350       -0.01058        1.83142
H          2.10835        3.77109        2.11512
