13
2-PYRROLIDONE.gamout	Energy:    -286.4251349
N         -0.02931        1.08682        0.04869
C         -0.83685       -0.03381        0.00097
C          0.11322       -1.23869       -0.15318
C          1.50563       -0.68026        0.19127
C          1.39384        0.83459       -0.12492
O         -2.05889       -0.04290        0.04739
H         -0.44758        2.01908        0.01804
H         -0.22090       -2.08126        0.48260
H          0.04619       -1.58123       -1.20983
H          1.71234       -0.81637        1.27350
H          2.33363       -1.16015       -0.36706
H          1.73111        1.06348       -1.16522
H          2.00877        1.45486        0.56221
