25
2-TERT-BUTYLPHENOL.gamout	Energy:    -464.3759118
O         -0.01840        2.19247        0.00914
C         -1.61711       -0.24250       -0.02008
C         -0.07081       -0.22142       -0.00155
C         -2.17067       -1.68484       -0.03173
C         -2.13629        0.47296       -1.29648
C         -2.16650        0.46386        1.24856
C          0.66521        1.00057        0.01221
C          0.69514       -1.40796        0.00274
C          2.07541        1.00292        0.02859
C          2.10187       -1.41429        0.01898
C          2.79893       -0.19844        0.03191
H         -1.86657       -2.25774        0.86916
H         -3.28012       -1.65446       -0.04466
H         -1.84619       -2.25208       -0.92919
H         -1.75705       -0.03118       -2.21016
H         -3.24653        0.44333       -1.32671
H         -1.81740        1.53188       -1.32796
H         -3.27719        0.43419        1.25222
H         -1.80936       -0.04686        2.16748
H         -1.84836        1.52243        1.29468
H          0.17330       -2.37511       -0.00704
H          2.60517        1.97198        0.03869
H          2.64503       -2.37194        0.02140
H          3.90001       -0.17613        0.04469
H          0.63621        2.91698        0.01989
