15
2-THIAPENTANE.gamout	Energy:    -556.4305536
S          1.38346       -0.76899        0.01373
C         -1.37807       -0.49470        0.00891
C         -0.08756        0.33381        0.00056
C         -2.64193        0.37546       -0.00128
C          2.70979        0.48328        0.00133
H         -1.37735       -1.17298       -0.87311
H         -1.37815       -1.15377        0.90532
H         -0.04655        0.98163       -0.90405
H         -0.04745        1.00120        0.89092
H         -2.68466        1.02122       -0.90429
H         -3.55909       -0.24918        0.00522
H         -2.68563        1.04098        0.88729
H          2.66919        1.13350        0.90052
H          2.67113        1.11304       -0.91236
H          3.67148       -0.06699        0.00859
