29
3,3,4-TRIMETHYLHEXANE.gamout	Energy:    -354.7311651
C          4.24074        1.89078        1.87450
C          2.88599        2.67301        2.10965
C          1.98642        1.90479        3.12488
C          3.20777        4.08709        2.65168
C          2.15388        2.84612        0.75842
C          5.01714        1.57656        3.17995
C          4.08306        0.60851        1.03209
C          0.56638        2.44834        3.34447
C          6.51638        1.31305        2.97530
H          4.87787        2.59207        1.28280
H          1.90812        0.84317        2.79944
H          2.50815        1.87883        4.10664
H          3.74561        4.05546        3.62135
H          2.28116        4.67723        2.80712
H          3.84025        4.65114        1.93312
H          1.29682        3.54545        0.84964
H          2.83841        3.26655       -0.00949
H          1.75592        1.88686        0.36774
H          4.55571        0.69481        3.67940
H          4.90514        2.41868        3.89551
H          3.36494       -0.10215        1.49524
H          5.05249        0.07671        0.94469
H          3.73640        0.81342       -0.00030
H          0.04214        1.86055        4.12677
H         -0.05436        2.39257        2.42615
H          0.56781        3.50663        3.68072
H          7.02273        1.09766        3.93950
H          7.02284        2.19266        2.52270
H          6.70431        0.44523        2.30850
