24
3,3-DIMETHYL-2-ETHYL-1-BUTENE.gamout	Energy:    -314.2244659
C          0.26963       36.46500       -1.17466
C          1.31110       36.07240       -0.10802
C          1.98142       37.26809        0.56943
C          3.41693       37.63552        0.13506
C          1.30401       37.94945        1.52034
C          4.37741       36.50025        0.58365
C          3.49468       37.78615       -1.40604
C          3.89915       38.95448        0.77301
H         -0.19655       35.56592       -1.63036
H         -0.53943       37.07911       -0.72806
H          0.72410       37.06131       -1.99196
H          2.07492       35.41084       -0.56964
H          0.80992       35.45455        0.66832
H          1.71109       38.83579        2.02822
H          0.29221       37.63312        1.82685
H          5.42018       36.73022        0.27654
H          4.36217       36.38157        1.68698
H          4.10838       35.52222        0.13355
H          4.53332       38.03189       -1.71389
H          2.83361       38.60282       -1.76409
H          3.20788       36.85443       -1.93570
H          3.92842       38.89191        1.88058
H          4.92746       39.19230        0.42843
H          3.24568       39.80776        0.49568
