22
3,3-DIMETHYLCYCLOHEXENE.gamout	Energy:    -313.0340704
C         -0.32509       -1.42018        0.07235
C         -1.27055       -0.45878        0.13424
C         -0.99216        1.03933        0.13201
C          0.52575        1.29131        0.35856
C          1.42154        0.33089       -0.43915
C          1.15261       -1.13031       -0.04050
C         -1.79828        1.70297        1.27356
C         -1.45623        1.64232       -1.21891
H         -0.63459       -2.48026        0.10466
H         -2.33517       -0.75259        0.19423
H          0.76446        2.34929        0.11253
H          0.74380        1.16443        1.44357
H          2.49251        0.58181       -0.28307
H          1.22869        0.45642       -1.52805
H          1.64824       -1.36106        0.93394
H          1.61818       -1.82908       -0.77141
H         -1.52667        1.27370        2.26084
H         -2.89096        1.56013        1.13077
H         -1.60361        2.79654        1.31093
H         -0.86920        1.23873       -2.06932
H         -1.34696        2.74881       -1.21688
H         -2.52435        1.40955       -1.41611
