18
3,3-DIMETHYL-1-BUTENE.gamout	Energy:    -235.6611269
C          3.28595        2.62589        2.30846
C          1.89024        2.08106        2.03329
C          1.26567        2.91275        0.88295
C          2.03095        0.60713        1.57218
C          0.97679        2.14967        3.27162
C          3.76723        3.12761        3.46050
H          3.96112        2.58876        1.43066
H          0.26656        2.51320        0.60537
H          1.14130        3.97500        1.17965
H          1.90211        2.88798       -0.02711
H          1.04000        0.18288        1.30262
H          2.68724        0.52472        0.67997
H          2.46936       -0.02295        2.37392
H         -0.02994        1.74590        3.03457
H          1.38566        1.55414        4.11463
H          0.84455        3.19421        3.62353
H          4.80469        3.49247        3.53083
H          3.15750        3.19753        4.37590
