21
3,3-DIMETHYL-1-PENTENE.gamout	Energy:    -274.9409782
C          2.79068        0.81408        2.08333
C          2.27606        1.90820        3.07820
C          2.04268        1.20720        4.41049
C          3.36357        2.98988        3.30264
C          0.99176        2.57217        2.54444
C          3.17215        1.28205        0.67213
C          0.89273        1.08843        5.09914
H          2.00552        0.02904        2.01125
H          3.67218        0.31671        2.54822
H          2.95421        0.74302        4.83703
H          4.31174        2.54107        3.66926
H          3.02993        3.73291        4.05655
H          3.58977        3.54001        2.36545
H          0.59059        3.30874        3.27141
H          0.19687        1.82306        2.34438
H          1.18872        3.11624        1.59838
H          3.99401        2.02823        0.68262
H          3.52349        0.42276        0.06337
H          2.31527        1.73370        0.13059
H          0.86211        0.54638        6.05810
H         -0.05857        1.51819        4.74564
