32
3,3-DIMETHYL-4-ETHYLHEXANE.gamout	Energy:    -394.0090134
C          0.17154       35.99654       -1.49074
C          1.09752       35.54805       -0.35062
C          2.07781       36.64397        0.17503
C          1.66640       37.27713        1.56684
C          3.53305       36.10942        0.14651
C          0.18312       37.75701        1.48265
C          1.83134       36.25374        2.71251
C          2.56471       38.50452        1.85271
C         -0.39734       38.47471        2.71105
C          4.10863       35.95429       -1.26812
H         -0.47928       35.16688       -1.84014
H         -0.49127       36.83126       -1.18202
H          0.75616       36.35014       -2.36717
H          1.68828       34.67580       -0.70742
H          0.48498       35.14851        0.48757
H          2.03998       37.49265       -0.54996
H          4.20228       36.78317        0.72181
H          3.57179       35.12533        0.66687
H          0.09110       38.43375        0.60254
H         -0.46322       36.88065        1.25978
H          1.55690       36.69854        3.69137
H          2.88090       35.90524        2.80181
H          1.19195       35.35669        2.56699
H          3.63609       38.23135        1.93419
H          2.47008       39.26673        1.04910
H          2.29014       38.99232        2.81050
H         -1.46250       38.73515        2.53732
H         -0.36548       37.84544        3.62502
H          0.13307       39.42245        2.93851
H          5.14205       35.54920       -1.24176
H          3.50381       35.26398       -1.89450
H          4.14801       36.92976       -1.79966
