32
3,3-DIETHYLHEXANE.gamout	Energy:    -394.0104351
C         -0.16808       44.90581        0.37461
C          1.34929       44.84909        0.14512
C          2.00039       46.24176        0.13106
C          3.55846       46.31957        0.01762
C          3.88605       47.82897       -0.21437
C          4.15876       45.82591        1.37970
C          4.07642       45.44194       -1.15846
C          5.35774       48.25315       -0.32380
C          5.60902       45.31564        1.41676
C          3.51723       45.76355       -2.55313
H         -0.62120       43.89256        0.36339
H         -0.41398       45.37111        1.35344
H         -0.67592       45.50623       -0.41097
H          1.55126       44.32981       -0.81737
H          1.81120       44.21584        0.93568
H          1.70453       46.78294        1.06030
H          1.55065       46.82771       -0.70317
H          3.35585       48.15981       -1.13575
H          3.41126       48.40239        0.61469
H          3.51634       45.00451        1.76795
H          4.04630       46.65545        2.11488
H          5.18447       45.51542       -1.20159
H          3.86544       44.37494       -0.92120
H          5.42932       49.33006       -0.58500
H          5.90976       48.11571        0.62826
H          5.90311       47.69224       -1.11199
H          5.89499       45.06018        2.45927
H          6.34254       46.06153        1.05088
H          5.74718       44.39407        0.81384
H          3.92720       45.06200       -3.30972
H          2.41110       45.68033       -2.59728
H          3.78495       46.78889       -2.88323
