26
3,3-DIMETHYLHEXANE.gamout	Energy:    -315.4546780
C          3.82309        2.80465        2.73252
C          2.78267        1.99710        1.90177
C          1.57707        1.61916        2.81680
C          2.28956        2.81394        0.68424
C          3.40933        0.67667        1.39819
C          5.13231        3.21233        2.03382
C          0.76304        2.76735        3.42957
C          6.06076        4.02263        2.94864
H          3.33387        3.73111        3.11059
H          4.07510        2.20555        3.63917
H          1.96028        0.97195        3.63965
H          0.89098        0.97347        2.22156
H          1.47370        2.27722        0.15411
H          1.90171        3.81091        0.98123
H          3.10578        2.97970       -0.04921
H          3.80248        0.07098        2.24351
H          2.65521        0.05779        0.86652
H          4.24547        0.85553        0.69088
H          4.90250        3.81038        1.12410
H          5.67359        2.30772        1.67825
H          1.36913        3.39830        4.11284
H          0.32708        3.43573        2.65758
H         -0.08367        2.36722        4.02610
H          5.57296        4.95764        3.30016
H          6.34466        3.44192        3.85282
H          6.99906        4.31194        2.43069
