19
3,3-DIMETHYL-1-PENTYNE.gamout	Energy:    -273.6920752
C         -0.11638        2.94968       -0.05920
C          0.77023        4.19715       -0.00972
C          2.31362        3.94566        0.01457
C          2.71780        3.20046       -1.19508
C          3.03784        5.31910        0.02321
C          2.72795        3.14207        1.27523
C          3.05582        2.58538       -2.19875
H         -1.18613        3.23345       -0.14051
H          0.13052        2.31526       -0.93603
H         -0.01386        2.32179        0.85036
H          0.52333        4.80429        0.89039
H          0.54871        4.84159       -0.88886
H          4.13893        5.18908        0.02624
H          2.75062        5.89299        0.92936
H          2.76329        5.91709       -0.86927
H          2.40410        3.67827        2.19255
H          2.27757        2.12983        1.28557
H          3.82942        3.01983        1.31714
H          3.35762        2.04359       -3.08429
