24
3,3-DIMETHYL-1-HEXENE.gamout	Energy:    -314.2236403
C          5.84879        4.20068        1.68495
C          4.35049        4.23177        2.01648
C          3.64541        2.90715        1.68037
C          2.11004        2.81645        1.96694
C          1.68672        1.39174        1.62956
C          1.82325        3.04421        3.47498
C          1.33373        3.85499        1.13449
C          0.79258        0.98989        0.70751
H          6.02375        4.00348        0.60529
H          6.34242        5.16416        1.93044
H          6.37479        3.40313        2.25275
H          3.87177        5.06747        1.45993
H          4.22306        4.46803        3.09601
H          3.80498        2.67799        0.60177
H          4.15088        2.08510        2.23873
H          2.19850        0.61577        2.23266
H          2.10225        4.07086        3.78987
H          0.74411        2.90477        3.69357
H          2.39079        2.32823        4.10718
H          1.61481        4.88884        1.42038
H          1.53203        3.73848        0.04816
H          0.23954        3.75536        1.29277
H          0.57508       -0.08007        0.55805
H          0.24320        1.69823        0.06663
