29
3,3-DIETHYLPENTANE.gamout	Energy:    -354.7271492
C          3.18402        3.79169        2.58918
C          2.25260        2.56759        2.85322
C          1.79813        2.62434        4.34869
C          3.00263        1.22171        2.62189
C          0.96537        2.60832        1.96061
C          3.87780        3.90746        1.22341
C          0.90977        3.80257        4.77786
C          4.26130        0.96319        3.46432
C          1.02528        2.06129        0.52364
H          2.58940        4.71678        2.75737
H          3.96849        3.80125        3.37948
H          1.26049        1.67432        4.57361
H          2.70450        2.62166        4.99282
H          2.27722        0.39388        2.79758
H          3.28269        1.14544        1.54926
H          0.16989        2.03959        2.49545
H          0.60277        3.65988        1.92481
H          4.48046        3.00859        0.97514
H          3.16029        4.06741        0.39333
H          4.57206        4.77444        1.21796
H         -0.05027        3.83670        4.22198
H          0.65682        3.72127        5.85588
H          1.41125        4.78317        4.63795
H          4.71793       -0.01176        3.19223
H          5.03998        1.73893        3.30583
H          4.04715        0.92594        4.55256
H          0.04346        2.20786        0.02605
H          1.78696        2.56592       -0.10384
H          1.24061        0.97326        0.49386
