19
3,3-DIMETHYLCYCLOPENTENE.gamout	Energy:    -273.7445373
C          1.01840       -0.69313       -0.06689
C          1.01413        0.65379       -0.02364
C         -0.38628        1.23573        0.15596
C         -1.28428       -0.01853       -0.13032
C         -0.37745       -1.26497        0.05935
C         -0.67259        2.39216       -0.82435
C         -0.56135        1.73572        1.61176
H          1.92174       -1.32011       -0.14472
H          1.91326        1.29182       -0.05924
H         -1.63470        0.02172       -1.18374
H         -2.18956       -0.03857        0.51130
H         -0.58716       -2.06409       -0.68555
H         -0.51558       -1.74149        1.05893
H         -0.51750        2.07479       -1.87682
H         -0.00680        3.26019       -0.62926
H         -1.72094        2.74784       -0.72516
H         -0.40966        0.91328        2.34208
H         -1.58001        2.15226        1.76827
H          0.16956        2.53655        1.85462
