32
3,3-DIETHYL-2-METHYLPENTANE.gamout	Energy:    -394.0006174
C         12.73008       57.64797        0.34498
C         14.21809       57.32238        0.15531
C         15.26862       58.48025        0.03845
C         15.21649       59.36560        1.35871
C         16.64462       57.73130       -0.08018
C         15.00446       59.34759       -1.22718
C         16.53636       60.04717        1.77733
C         14.12277       60.45750        1.37162
C         17.85454       58.45635       -0.69323
C         14.93689       58.60234       -2.56984
H         12.12678       56.71834        0.26813
H         12.50929       58.08920        1.33787
H         12.34344       58.34603       -0.42768
H         14.31848       56.69100       -0.75450
H         14.54629       56.66904        0.99628
H         14.97188       58.64403        2.17476
H         16.47719       56.81159       -0.68445
H         16.91442       57.35336        0.93213
H         14.05092       59.90114       -1.09730
H         15.79031       60.13321       -1.28515
H         16.38526       60.59698        2.73098
H         17.36638       59.33374        1.94589
H         16.87166       60.79634        1.02806
H         14.01203       60.86901        2.39744
H         13.12679       60.09702        1.05395
H         14.39604       61.30899        0.71289
H         18.74404       57.79127       -0.67114
H         18.13038       59.38505       -0.15864
H         17.68712       58.72705       -1.75618
H         14.84887       59.32102       -3.41163
H         15.83753       57.98303       -2.76409
H         14.05704       57.92828       -2.62901
