32
3,4,4-TRIMETHYLHEPTANE.gamout	Energy:    -394.0135528
C         -0.16958       36.99747       -0.14502
C          1.35159       36.88153        0.02799
C          2.05973       38.24640       -0.04497
C          3.62002       38.25125        0.00012
C          4.12475       39.74013        0.18218
C          4.09334       37.41234        1.21121
C          4.18481       37.63151       -1.29909
C          5.66707       39.88671        0.09814
C          3.45733       40.74941       -0.77497
C          6.22109       41.11920        0.82820
H         -0.66572       36.00697       -0.07653
H         -0.61851       37.64919        0.63554
H         -0.43542       37.43620       -1.13107
H          1.75509       36.20109       -0.75504
H          1.56744       36.39207        1.00235
H          1.68354       38.87972        0.79312
H          1.72984       38.75285       -0.97921
H          3.82703       40.02723        1.21966
H          5.19495       37.44631        1.33535
H          3.81778       36.34393        1.09696
H          3.63767       37.77916        2.15647
H          3.88711       38.21325       -2.19740
H          5.29311       37.58113       -1.28369
H          3.81775       36.59381       -1.44052
H          6.15987       38.98421        0.51908
H          5.97196       39.92678       -0.97228
H          3.90164       41.75895       -0.65396
H          2.36915       40.85614       -0.59669
H          3.59889       40.45710       -1.83811
H          7.32428       41.18813        0.72394
H          5.79618       42.06695        0.43477
H          5.99200       41.08113        1.91506
