24
3,4,4-TRIMETHYL-CIS-2-PENTENE.gamout	Energy:    -314.2231773
C          2.88191        1.99607        2.26433
C          1.99526        1.85831        1.24196
C          2.49950        2.07221        3.77297
C          4.35496        2.07535        1.91209
C          0.49391        1.74258        1.22358
C          1.80361        0.75674        4.21196
C          3.74286        2.25506        4.68139
C          1.56997        3.28726        4.02964
H          2.44269        1.82243        0.22952
H          4.82111        3.02324        2.25885
H          4.94189        1.25581        2.38128
H          4.51036        2.01010        0.81649
H          0.18120        0.81088        0.70094
H          0.02119        1.73691        2.22208
H          0.04238        2.57988        0.64475
H          0.87223        0.56583        3.64502
H          2.47282       -0.11527        4.05649
H          1.54237        0.79495        5.29181
H          3.42215        2.30299        5.74316
H          4.28818        3.19426        4.45839
H          4.45679        1.41203        4.58935
H          1.30918        3.35795        5.10800
H          2.07072        4.23478        3.74037
H          0.62410        3.22371        3.45836
