29
3,4-DIMETHYLHEPTANE.gamout	Energy:    -354.7364723
C          1.56295        2.17098        2.64006
C          2.03098        2.15303        4.13196
C          3.54830        2.40593        4.29708
C          1.58365        0.86251        4.84434
C          1.50771        3.61169        2.08014
C          2.38664        1.23212        1.73803
C          3.99180        2.81368        5.71265
C          0.87948        3.75046        0.68650
C          5.50763        3.01495        5.83780
H          0.51255        1.79244        2.64104
H          1.50274        3.00146        4.62900
H          4.11229        1.49486        3.99009
H          3.86913        3.20810        3.59472
H          1.91221        0.84135        5.90394
H          2.00622       -0.04118        4.35415
H          0.47811        0.76062        4.83834
H          0.93738        4.24401        2.79757
H          2.53696        4.03868        2.05778
H          2.49768        0.22243        2.18517
H          3.40688        1.63252        1.55599
H          1.90624        1.09407        0.74790
H          3.66272        2.04844        6.45059
H          3.46804        3.75327        6.00355
H          1.47522        3.23627       -0.09619
H         -0.14642        3.32283        0.65626
H          0.80193        4.81694        0.38835
H          5.79792        3.32593        6.86309
H          6.06116        2.08017        5.60351
H          5.87278        3.79619        5.13658
