24
3,4-DIMETHYL-TRANS-3-HEXENE.gamout	Energy:    -314.2325972
C          5.63032        2.03910        1.99424
C          6.52663        1.81312        0.75951
C          4.27373        2.64732        1.65926
C          3.16623        1.89823        1.38252
C          4.28193        4.16120        1.64207
C          1.80965        2.50641        1.04744
C          3.15806        0.38436        1.39970
C          0.91312        2.73207        2.28207
H          5.51242        1.07844        2.53816
H          6.15975        2.71897        2.69922
H          7.52823        1.43164        1.05069
H          6.07245        1.07804        0.06268
H          6.68133        2.75411        0.19007
H          5.11640        4.54855        1.01518
H          4.45739        4.56499        2.66539
H          3.34484        4.61275        1.26572
H          1.28040        1.82663        0.34223
H          1.92752        3.46717        0.50369
H          4.09463       -0.06716        1.77739
H          2.98411       -0.01946        0.37612
H          2.32271       -0.00302        2.02539
H          1.36724        3.46691        2.97919
H         -0.08839        3.11370        1.99083
H          0.75829        1.79092        2.85121
