14
3,4-DICHLOROPHENYL_ISOCYANATE.gamout	Energy:   -1318.4462994
C          6.83811        4.17191       -1.28574
N          6.89307        2.99528       -0.97434
C          6.11025        1.88377       -0.67909
O          6.92412        5.31248       -1.58748
C          6.75757        0.67218       -0.35581
C          4.69600        1.93533       -0.69332
C          6.00654       -0.47417       -0.04982
C          3.95257        0.78995       -0.38801
Cl         6.83921       -1.95100        0.34663
C          4.59182       -0.42208       -0.06466
Cl         3.63742       -1.82860        0.30820
H          7.85501        0.62511       -0.34246
H          4.18232        2.87544       -0.94462
H          2.85316        0.82091       -0.39704
