15
3,4-DIMETHYLTHIOPHENE.gamout	Energy:    -631.3868027
C         -4.96006       -0.75762       -1.21616
C         -3.68773       -0.08863       -1.02984
C         -5.94146       -0.24579       -0.38367
C         -5.17582       -1.87626       -2.20241
C         -3.75927        0.90161       -0.06408
C         -2.44306       -0.43960       -1.80363
S         -5.34757        1.03707        0.62564
H         -6.99145       -0.55855       -0.31034
H         -4.51611       -2.74503       -1.98670
H         -6.22283       -2.23795       -2.18410
H         -4.94946       -1.55375       -3.24223
H         -2.95413        1.56386        0.28062
H         -1.58481        0.19327       -1.50312
H         -2.14996       -1.50079       -1.64712
H         -2.59176       -0.30766       -2.89772
