32
3,4-DIETHYLHEXANE.gamout	Energy:    -394.0128631
C          5.85982        2.70347        3.19240
C          4.58748        3.32826        3.78450
C          3.25795        2.67535        3.29697
C          2.67492        1.67760        4.32568
C          2.21700        3.75396        2.84969
C          3.57284        0.47941        4.66155
C          1.40562        2.45091        0.73973
C          1.03058        3.17562        2.03917
C          1.71486        4.62271        4.03136
C          1.08120        5.96053        3.62402
H          5.87157        2.79235        2.08444
H          6.77528        3.20437        3.57298
H          5.94704        1.62385        3.43396
H          4.64089        3.29447        4.89653
H          4.58173        4.41053        3.52436
H          3.50909        2.08866        2.38307
H          2.43572        2.22512        5.26527
H          1.70254        1.29560        3.94310
H          2.77216        4.43585        2.15889
H          3.84249       -0.10005        3.75194
H          4.52084        0.78979        5.14920
H          3.06422       -0.21968        5.35831
H          2.02525        3.09608        0.07954
H          1.98101        1.51973        0.92463
H          0.50084        2.16306        0.16441
H          0.34456        4.01398        1.78958
H          0.43664        2.49382        2.68978
H          0.98382        4.03457        4.63077
H          2.56696        4.83126        4.71463
H          1.79454        6.58517        3.04387
H          0.17470        5.82703        2.99675
H          0.77420        6.54978        4.51346
