19
3,4-DINITROTOLUENE.gamout	Energy:    -680.0953318
O          6.77054        3.88490       -1.70126
N          7.14143        3.06925       -0.85653
O          8.11507        3.17955       -0.11349
C          6.29327        1.86350       -0.67616
C          6.82773        0.61175       -0.31252
C          4.90446        2.02106       -0.76534
N          8.29004        0.33394       -0.33726
C          5.97806       -0.45939       -0.01640
C          4.05650        0.94058       -0.47754
O          8.73076       -0.38416        0.55962
O          8.92303        0.79625       -1.28344
C          4.57444       -0.31570       -0.09314
C          3.66911       -1.48655        0.20339
H          4.50948        3.00784       -1.04695
H          6.43778       -1.41832        0.26695
H          2.96604        1.08118       -0.54305
H          3.65995       -2.20420       -0.64591
H          4.01190       -2.04750        1.09656
H          2.62467       -1.16137        0.37591
