32
3,4-DIMETHYLOCTANE.gamout	Energy:    -394.0154695
C          7.18714        1.55450        1.50128
C          5.91535        1.36701        2.39313
C          4.61797        1.69929        1.62077
C          5.96125        2.07109        3.76430
C          7.37163        2.94342        0.82914
C          8.47092        1.07853        2.20559
C          3.32493        1.14213        2.23940
C          7.82210        4.12132        1.70742
C          2.06267        1.47072        1.42492
C          0.77443        0.89421        2.02472
H          7.02375        0.85270        0.64879
H          5.88519        0.27056        2.60526
H          4.52002        2.80466        1.51551
H          4.70574        1.30471        0.58193
H          6.91003        1.86901        4.30132
H          5.85325        3.17214        3.67315
H          5.13989        1.71599        4.42046
H          8.12265        2.81225        0.01706
H          6.42945        3.21821        0.30628
H          8.75354        1.72701        3.06040
H          9.33056        1.07278        1.50177
H          8.35490        0.04615        2.59892
H          3.41365        0.03537        2.34454
H          3.19675        1.53200        3.27429
H          8.77117        3.90478        2.24093
H          7.99800        5.02387        1.08510
H          7.06967        4.39638        2.47421
H          1.96765        2.57676        1.33060
H          2.19068        1.09458        0.38411
H          0.60101        1.27332        3.05489
H         -0.11654        1.15944        1.41810
H          0.81581       -0.21474        2.08637
