24
3,4-DIMETHYL-1-HEXENE.gamout	Energy:    -314.2223828
C          3.46567        3.75974        2.58382
C          2.78106        2.44867        2.05897
C          1.42130        2.20045        2.75461
C          2.66531        2.39023        0.52435
C          4.85188        3.94635        2.00773
C          2.62158        5.03563        2.36796
C          0.90134        0.76039        2.64261
C          6.00513        3.84641        2.69533
H          3.58549        3.61774        3.68287
H          3.46019        1.62139        2.37298
H          0.65957        2.90199        2.34536
H          1.52192        2.45979        3.83327
H          2.17777        1.45044        0.19313
H          3.65962        2.42632        0.03505
H          2.05925        3.23157        0.12455
H          4.90218        4.20076        0.93118
H          2.45114        5.24052        1.28963
H          3.13943        5.91933        2.79408
H          1.62959        4.95935        2.85809
H          1.60915        0.03850        3.10377
H         -0.07529        0.64360        3.15704
H          0.75254        0.44989        1.58729
H          6.01489        3.60606        3.77322
H          6.98190        4.00072        2.20830
