24
3,4-DIMETHYL-TRANS-2-HEXENE.gamout	Energy:    -314.2311347
C          1.45019        4.44815        0.73725
C          0.99772        3.06653        1.22593
C          1.71124        3.28254        3.67571
C          1.84211        2.45404        2.38650
C          3.28323        2.15829        1.95197
C          3.42928        0.95359        1.04757
C          4.33189        2.91477        2.36487
C          5.78814        2.75977        2.01970
H          2.51115        4.43583        0.41051
H          0.83619        4.78481       -0.12410
H          1.35557        5.22382        1.52620
H         -0.06202        3.11985        1.56309
H          1.00174        2.35858        0.36811
H          0.64546        3.36160        3.97711
H          2.26945        2.81687        4.51380
H          2.09300        4.31764        3.55633
H          1.37968        1.45977        2.59565
H          3.18164        0.01787        1.59826
H          2.72437        1.00051        0.18922
H          4.44905        0.83865        0.63318
H          4.10896        3.76102        3.03840
H          6.18123        3.67873        1.52955
H          6.40400        2.61748        2.93580
H          5.99307        1.90651        1.34375
