26
3,4-DIMETHYLHEXANE.gamout	Energy:    -315.4523193
C          3.16643        0.59315        1.16372
C          3.28405        2.04546        1.66657
C          0.71041        2.45640        1.71676
C          2.07998        2.88606        1.17182
C          4.65573        2.69575        1.28645
C          5.85759        1.85378        1.78510
C          7.23151        2.28912        1.25566
C          4.77403        4.14750        1.79033
H          3.89459       -0.08779        1.64701
H          2.15991        0.17376        1.36531
H          3.33341        0.54177        0.06509
H          3.23801        2.02660        2.78393
H          0.69370        2.47999        2.82783
H         -0.09042        3.13617        1.35799
H          0.42701        1.43032        1.40258
H          2.06392        2.86394        0.05663
H          2.23735        3.94943        1.44702
H          4.70546        2.71394        0.16928
H          5.70421        0.79192        1.50189
H          5.86442        1.86939        2.90053
H          8.02947        1.60451        1.61146
H          7.25623        2.27920        0.14444
H          7.51275        3.31158        1.58316
H          4.61372        4.19674        2.89009
H          5.77886        4.56860        1.58411
H          4.04224        4.82861        1.31276
