21
3,4-DIMETHYL-TRANS-2-PENTENE.gamout	Energy:    -274.9499079
C          4.50437        2.54058        2.00050
C          3.16011        1.86920        1.69141
C          2.07736        2.58050        1.28861
C          3.15744        0.36679        1.86919
C          4.41444        4.02924        2.37453
C          5.50422        2.33878        0.83685
C          0.70874        2.07178        0.92627
H          4.92451        2.00440        2.88491
H          2.19181        3.67635        1.21020
H          3.33483        0.09815        2.93499
H          2.20868       -0.10923        1.55630
H          3.97738       -0.11232        1.29009
H          5.40381        4.40659        2.70799
H          3.68742        4.20239        3.19453
H          4.10487        4.65462        1.50988
H          5.15204        2.86808       -0.07415
H          6.50696        2.73895        1.09816
H          5.63253        1.26850        0.57377
H          0.43743        2.36185       -0.11353
H          0.61404        0.97064        1.00089
H         -0.07201        2.52033        1.58098
