29
3,5-DIMETHYLHEPTANE.gamout	Energy:    -354.7298428
C          2.78269        3.96409        4.51776
C          3.74121        3.99398        3.29227
C          2.34266        2.65379        5.23276
C          3.16840        3.33268        2.01494
C          5.17348        3.51350        3.59927
C          1.47805        1.70938        4.36160
C          3.48778        1.90040        5.93839
C          3.81916        3.81362        0.70921
C          0.61688        0.72674        5.16939
H          3.24185        4.61589        5.29653
H          1.85005        4.48970        4.20795
H          3.82501        5.08319        3.05838
H          1.66660        3.01995        6.04344
H          3.26863        2.22658        2.08726
H          2.07531        3.53229        1.96383
H          5.22484        2.41216        3.72171
H          5.56488        3.97410        4.53030
H          5.87320        3.78528        2.78160
H          0.81305        2.32356        3.71530
H          2.12987        1.13623        3.66511
H          3.09423        1.13478        6.63833
H          4.12519        2.58996        6.53044
H          4.14449        1.37450        5.21523
H          3.69176        4.90987        0.57684
H          3.36642        3.31741       -0.17451
H          4.90852        3.60143        0.68058
H          0.01350        0.07257        4.50612
H          1.23335        0.06299        5.81105
H         -0.08946        1.26769        5.83571
