32
3,5-DIMETHYLOCTANE.gamout	Energy:    -394.0160399
C          4.62061        3.20308        1.37121
C          4.20487        1.99178        2.24916
C          5.97674        3.89039        1.67794
C          2.66109        1.84716        2.31994
C          4.86757        0.65605        1.85330
C          6.01219        5.33400        1.11370
C          7.19831        3.10787        1.16122
C          1.93758        1.52695        0.99976
C          5.08585        6.34088        1.80807
C          0.41807        1.39426        1.16798
H          3.82400        3.97041        1.48842
H          4.60218        2.91992        0.29252
H          4.53060        2.22529        3.29045
H          6.06448        3.97095        2.78897
H          2.41616        1.05319        3.06333
H          2.23680        2.78893        2.73890
H          4.69032        0.41317        0.78392
H          5.96392        0.66476        2.00972
H          4.45860       -0.18174        2.45772
H          7.05779        5.71016        1.17954
H          5.77990        5.29578        0.02352
H          7.15751        2.99763        0.05523
H          8.14206        3.63825        1.40928
H          7.26980        2.09127        1.59412
H          2.15756        2.31898        0.24917
H          2.34256        0.58392        0.56998
H          5.32155        6.42208        2.89124
H          5.18984        7.35371        1.36670
H          4.01525        6.05834        1.72567
H          0.15956        0.57478        1.87263
H         -0.08414        1.17534        0.20243
H         -0.02798        2.32849        1.57191
