32
3,6-DIMETHYLOCTANE.gamout	Energy:    -394.0197046
C          4.54427        3.03953        1.62337
C          5.96514        2.48762        1.88294
C          6.41675        2.59903        3.36443
C          6.98137        3.13703        0.92548
C          3.41079        2.30455        2.35665
C          6.38768        4.00842        3.97400
C          1.99404        2.87644        2.10838
C          0.88609        1.88741        2.54332
C          1.80085        4.23193        2.81190
C          0.75627        0.62109        1.68648
H          4.34710        2.99426        0.52783
H          4.52956        4.12308        1.87929
H          5.94210        1.39697        1.64751
H          7.44887        2.18882        3.44095
H          5.78940        1.92340        3.98732
H          8.00232        2.72585        1.07403
H          7.03862        4.23737        1.07013
H          6.70067        2.96464       -0.13513
H          3.43430        1.23476        2.04976
H          3.59799        2.30567        3.45544
H          6.80149        4.00259        5.00406
H          6.99014        4.73235        3.38552
H          5.35551        4.41205        4.04154
H          1.88270        3.04181        1.00923
H         -0.08725        2.42778        2.53635
H          1.05952        1.60400        3.60794
H          1.84633        4.11077        3.91669
H          0.81429        4.68037        2.56864
H          2.57859        4.96929        2.52487
H          1.68851        0.01813        1.68261
H          0.51741        0.86964        0.62995
H         -0.05444       -0.03648        2.06365
