14
3-AMINO-1-PROPANOL.gamout	Energy:    -249.5048212
N         -4.91941        0.41886        0.37651
C         -3.76518        1.25871        0.04253
H         -5.79144        0.92280        0.16574
H         -4.92762       -0.40967       -0.23584
C         -2.45405        0.53833        0.37347
H         -3.83242        2.18879        0.65254
H         -3.72872        1.60220       -1.02718
C         -1.20906        1.38052        0.10857
H         -2.37154       -0.39615       -0.22752
H         -2.46465        0.22464        1.43911
O         -0.06542        0.60502        0.44309
H         -1.26513        2.32269        0.71294
H         -1.19417        1.69646       -0.96709
H          0.72185        1.15648        0.28458
