9
3-BROMO-1-PROPENE.gamout	Energy:   -2691.3308926
C         -0.00629        0.07870        0.26764
C          1.10612        0.55959       -0.32030
C          2.44943       -0.07561       -0.20666
Br         3.74464        1.13647        0.71696
H         -0.98300        0.57007        0.13396
H          0.01910       -0.82519        0.90038
H          1.05005        1.47270       -0.93989
H          2.43542       -1.00671        0.38955
H          2.91898       -0.26335       -1.19149
