26
3-BUTOXYPROPANE-1,2-DIOL.gamout	Energy:    -501.6428619
C         -0.14601       -0.45232       -1.45196
C         -0.67912       -1.80178       -0.96254
C          0.23308       -2.96530       -1.35900
O         -0.16526       -0.45950       -2.87470
O         -0.84780       -1.67110        0.44331
O          1.52616       -2.78089       -0.81987
C          2.44745       -3.78804       -1.19657
C          3.82594       -3.44149       -0.63926
C          4.89952       -4.48751       -0.97512
C          6.28974       -4.12189       -0.44118
H         -0.79585        0.34782       -1.02087
H          0.88014       -0.32291       -1.03707
H         -1.65675       -1.98253       -1.48244
H          0.26145       -3.02023       -2.47600
H         -0.21417       -3.93083       -0.99567
H          0.39698        0.27438       -3.17912
H         -0.96905       -2.56628        0.80971
H          2.49216       -3.88197       -2.31322
H          2.11541       -4.78852       -0.81152
H          3.73992       -3.31822        0.46333
H          4.12623       -2.44715       -1.03867
H          4.95151       -4.62037       -2.08012
H          4.59185       -5.47781       -0.56832
H          6.64219       -3.15603       -0.86209
H          7.04444       -4.89353       -0.69945
H          6.28572       -4.01680        0.66492
