26
3-CARENE.gamout	Energy:    -390.3727143
C         -1.44635        0.69802        0.29306
C         -2.10919       -0.43445       -0.03938
C         -1.66545       -1.44035       -1.07071
C         -0.14070        1.09843       -0.36566
C          0.45457        0.10172       -1.35388
C         -0.30701       -1.16907       -1.70817
C          1.00627       -1.25878       -0.93212
C         -1.96646        1.65172        1.34101
C          1.01436       -1.67186        0.53329
C          2.21873       -1.76659       -1.70429
H          1.00672        0.58022       -2.18196
H         -0.23935       -1.49661       -2.76056
H         -3.05870       -0.65786        0.48071
H         -2.43302       -1.47242       -1.87930
H         -1.69088       -2.46410       -0.62535
H          0.60204        1.35593        0.42817
H         -0.31549        2.06141       -0.90104
H         -2.92808        1.30950        1.77358
H         -2.12303        2.67104        0.92089
H         -1.23743        1.76955        2.17438
H          1.92294       -1.28492        1.04480
H          1.03613       -2.77972        0.62914
H          0.13110       -1.30482        1.09104
H          3.16510       -1.38104       -1.26482
H          2.19133       -1.44865       -2.76764
H          2.27211       -2.87747       -1.68748
