12
3-CHLORO-1-PROPANOL.gamout	Energy:    -653.6971430
Cl         2.62538        1.65811        1.23305
O         -2.41671        0.66775        0.94329
C         -0.06337        1.02863        1.05488
C         -1.17101        0.00817        0.78176
C          1.33071        0.42919        0.91016
H         -0.19579        1.43575        2.07961
H         -0.18216        1.88076        0.35244
H         -1.04787       -0.40658       -0.25242
H         -1.06264       -0.85869        1.48449
H          1.50050       -0.40149        1.62502
H          1.51090        0.04566       -0.11456
H         -3.12159        0.01818        0.76851
