9
3-CHLOROPROPENE.gamout	Energy:    -577.3089990
C         -1.34914       -0.12646        0.42414
C         -0.21415        0.34634       -0.12300
C          1.11345       -0.33414       -0.01802
Cl         2.33272        0.72848        0.84042
H         -2.30939        0.39887        0.29992
H         -1.36032       -1.05911        1.01434
H         -0.22824        1.28761       -0.70172
H          1.05239       -1.28222        0.55072
H          1.55416       -0.53549       -1.01534
