12
3-CYANOPYRIDINE.gamout	Energy:    -340.2754098
N          1.90725       -1.12581        0.00011
N         -2.89479       -0.50430        0.00604
C         -0.30998       -0.13757        0.00240
C          0.25024        1.16242        0.00008
C          1.64465        1.28596       -0.00231
C          0.57460       -1.24883        0.00237
C          2.42644        0.11543       -0.00232
C         -1.73160       -0.33737        0.00440
H         -0.40350        2.04767        0.00008
H          2.12246        2.27748       -0.00422
H          0.16398       -2.27424        0.00430
H          3.52953        0.18468       -0.00433
