28
3-DECYNE.gamout	Energy:    -391.5533055
C          6.85982        0.92956        2.56628
C          5.75253        1.84039        1.98667
C          4.38613        1.14453        1.91562
C          8.17486        1.56664        2.67242
C          3.26493        2.02427        1.34404
C          9.27346        2.10475        2.75690
C          1.89622        1.32791        1.28747
C         10.58533        2.74486        2.89660
C          0.77811        2.20831        0.71543
C         10.88788        3.24076        4.32681
H          6.94336        0.00945        1.94192
H          6.54452        0.57230        3.57437
H          6.05795        2.18548        0.97391
H          5.67729        2.75886        2.61036
H          4.09599        0.79957        2.93559
H          4.47631        0.21597        1.30463
H          3.54768        2.36606        0.32115
H          3.17855        2.95408        1.95346
H          1.61636        0.98959        2.31153
H          1.98583        0.39642        0.68264
H         11.37698        2.02873        2.57736
H         10.65556        3.59852        2.18442
H         -0.19384        1.67324        0.69334
H          1.00696        2.52935       -0.32344
H          0.63794        3.12958        1.32099
H         10.87244        2.40141        5.05128
H         10.13438        3.98492        4.65632
H         11.88832        3.71873        4.37104
