21
3-DIMETHYLAMINOPROPYLAMINE.gamout	Energy:    -308.2083522
N          1.43686       -0.50803        1.71304
N         -2.50271       -0.33981       -0.23300
C          0.77244        0.77282        1.46600
C         -0.36928        0.70161        0.44241
C         -1.47117       -0.30090        0.80741
C          2.17339       -1.00742        0.56189
C          2.26309       -0.47530        2.90842
H          0.35839        1.11836        2.43978
H          1.50715        1.56480        1.14351
H          0.01074        0.45454       -0.57298
H         -0.80743        1.72222        0.35293
H         -1.84721       -0.05348        1.83747
H         -1.01627       -1.31103        0.89361
H          1.50101       -1.14318       -0.30933
H          2.61520       -1.99818        0.79752
H          3.01260       -0.32847        0.24122
H          3.12994        0.24067        2.83996
H          2.68150       -1.48367        3.11174
H          1.65381       -0.17768        3.78778
H         -3.00779        0.55847       -0.25393
H         -3.21479       -1.04407        0.00408
