23
3-ETHYLPENTANE.gamout	Energy:    -276.1703798
C          4.67038        4.18410        1.18758
C          3.36951        3.47693        1.64046
C          3.34247        1.98231        1.20644
C          2.14104        4.27155        1.13640
C          5.94143        3.72627        1.91296
C          2.80122        1.00594        2.26036
C          0.76701        3.75750        1.58226
H          4.78950        4.04041        0.08829
H          4.54825        5.28105        1.33218
H          3.35236        3.50716        2.75738
H          2.75162        1.88790        0.26618
H          4.37093        1.66048        0.93041
H          2.25308        5.32830        1.46929
H          2.17986        4.30622        0.02226
H          6.83745        4.26508        1.54014
H          5.87157        3.91297        3.00627
H          6.13518        2.64093        1.77605
H          1.76365        1.25333        2.56568
H          3.42520        1.02490        3.17960
H          2.79647       -0.03894        1.88405
H          0.68861        3.71196        2.68991
H         -0.04371        4.42449        1.22098
H          0.54768        2.74172        1.19146
