32
3-ETHYLOCTANE.gamout	Energy:    -394.0172083
C          4.32953        3.97936        4.47017
C          3.07420        3.30290        3.86199
C          3.05660        1.78596        4.16308
C          1.78732        4.03369        4.34541
C          5.70790        3.45175        4.02787
C          1.88507        0.98998        3.57426
C          0.70102        4.22204        3.27736
C          6.00408        3.57624        2.52515
C          7.42597        3.13870        2.13865
C          7.72431        3.25769        0.63984
H          4.27813        5.06851        4.24043
H          4.25992        3.90622        5.58072
H          3.12775        3.42353        2.75330
H          4.00488        1.33870        3.79227
H          3.07638        1.64732        5.27011
H          1.36705        3.49188        5.22393
H          2.07167        5.03668        4.73484
H          6.48808        4.01105        4.59285
H          5.83117        2.38961        4.33918
H          1.99408       -0.09391        3.78863
H          0.90717        1.30626        3.99334
H          1.82732        1.10342        2.47010
H         -0.18496        4.75241        3.68609
H          0.34499        3.25672        2.86257
H          1.07909        4.82381        2.42258
H          5.84485        4.63310        2.20530
H          5.26945        2.97551        1.94137
H          8.16212        3.74362        2.71620
H          7.58618        2.08574        2.46638
H          8.75934        2.93691        0.39846
H          7.03317        2.62983        0.03699
H          7.61028        4.30404        0.28231
