24
3-ETHYL-O-XYLENE.gamout	Energy:    -389.2142428
C          1.57002        0.71076        3.79953
C          0.90874        1.77048        4.70318
C          2.77025        1.23396        3.02447
C          4.06088        1.35904        3.61168
C          2.58359        1.63956        1.68444
C          4.33667        0.94545        5.04171
C          5.13684        1.88757        2.84001
C          3.63961        2.16213        0.92640
C          6.51613        2.02592        3.44554
C          4.91074        2.28407        1.50767
H          1.85795       -0.17170        4.41150
H          0.81712        0.33777        3.07229
H          1.61687        2.15248        5.46756
H          0.02820        1.35333        5.23589
H          0.56608        2.64209        4.10767
H          1.58298        1.53621        1.23224
H          5.14828        0.18711        5.09613
H          3.45243        0.51565        5.54652
H          4.67998        1.80723        5.65565
H          3.47520        2.47147       -0.11807
H          6.50957        2.67750        4.34666
H          7.23347        2.46190        2.72213
H          6.92453        1.04527        3.77476
H          5.74912        2.69283        0.91945
