14
3-ETHYL_ACROLEIN.gamout	Energy:    -270.3411682
C          2.90183        2.13262        3.78164
C          1.94946        1.70704        2.91453
C          1.07025        2.57084        2.06280
C          3.71631        1.17407        4.57103
C          1.22047        2.27962        0.55558
O          3.61028       -0.04423        4.52040
H          3.10035        3.20974        3.92919
H          1.82565        0.60935        2.82614
H          0.01029        2.38235        2.35472
H          1.27043        3.64369        2.27212
H          4.47764        1.65742        5.25675
H          0.52355        2.90533       -0.03854
H          1.00131        1.21648        0.32316
H          2.25227        2.49252        0.20785
