32
3-ETHYL-2,2,3-TRIMETHYLPENTANE.gamout	Energy:    -394.0032426
C         -0.40508       45.93834        0.13510
C          0.59557       44.80285        0.40001
C          2.05480       45.00379       -0.11497
C          2.89569       43.64554        0.08944
C          2.01123       45.35747       -1.62552
C          2.70950       46.24527        0.58088
C          2.52081       42.58766       -0.98256
C          2.63683       42.98318        1.46784
C          4.41631       43.90714       -0.03563
C          2.86700       46.28189        2.10817
H         -1.39832       45.67956        0.55842
H         -0.09553       46.89596        0.60399
H         -0.55572       46.13135       -0.94720
H          0.19378       43.87042       -0.05546
H          0.61733       44.61239        1.49365
H          3.02706       45.34746       -2.07205
H          1.60318       46.37671       -1.78235
H          1.37836       44.65684       -2.20695
H          3.70175       46.42442        0.11319
H          2.09968       47.12692        0.28388
H          3.00905       41.61983       -0.73940
H          2.85392       42.87359       -2.00023
H          1.42714       42.39949       -1.02198
H          3.32127       42.11762        1.60161
H          2.81003       43.67086        2.31744
H          1.60395       42.58967        1.55730
H          4.81203       44.51938        0.79995
H          4.97147       42.94450       -0.02326
H          4.67750       44.42017       -0.98489
H          3.18766       47.29457        2.43273
H          1.91751       46.05947        2.63940
H          3.63175       45.57074        2.48182
