24
3-ETHYL-3-PENTANOL.gamout	Energy:    -351.3371105
C         -1.26396       -0.76638        0.49266
C         -1.37298       -2.21680        0.00514
C         -0.00139        0.00301        0.02892
C         -0.05022        1.47778        0.52356
C         -1.22703        2.31029       -0.00258
C          1.28824       -0.70233        0.53810
C          2.61951       -0.09843        0.06706
O         -0.04388       -0.03232       -1.41069
H         -2.14581       -0.20331        0.12049
H         -1.30943       -0.72091        1.60336
H         -0.60197       -2.87713        0.45365
H         -2.36276       -2.64629        0.26494
H         -1.25842       -2.25800       -1.09660
H         -0.03722        1.48003        1.63675
H          0.89814        1.97314        0.21514
H         -1.29938        2.21773       -1.10559
H         -2.19840        1.98622        0.42433
H         -1.09779        3.38318        0.24872
H          1.26214       -0.72766        1.65055
H          1.24653       -1.75898        0.20020
H          2.67766       -0.05483       -1.04317
H          2.79169        0.92592        0.45712
H          3.47299       -0.72397        0.40017
H          0.75277        0.43197       -1.73209
