19
3-ETHYL-1-PENTYNE.gamout	Energy:    -273.6924924
C          1.01740       -0.05794        0.02431
C          2.23990       -0.03014       -0.04119
C          3.70736        0.02714       -0.11385
C          4.19192        0.40416       -1.54051
C          3.74589       -0.56996       -2.63517
C          4.26670        0.97359        0.98828
C          5.78795        0.91321        1.16944
H         -0.06161       -0.08954        0.08421
H          4.08503       -1.00149        0.10761
H          5.30156        0.46006       -1.52263
H          3.83071        1.43099       -1.77279
H          4.12166       -1.59765       -2.44105
H          4.12727       -0.25803       -3.62926
H          2.63944       -0.62687       -2.69798
H          3.76950        0.71246        1.94695
H          3.94599        2.01273        0.75311
H          6.13020       -0.12168        1.38592
H          6.10797        1.55148        2.01877
H          6.33784        1.26561        0.27234
