22
3-ETHYLCYCLOHEXENE.gamout	Energy:    -313.0327443
C          2.83883        1.33283        0.76320
C          1.33738        1.32677        1.09739
C          3.68166        0.98115        2.00158
C          1.04557        1.99699        2.41847
C          1.99686        2.30605        3.32724
C          3.47161        1.99161        3.15565
C          4.34619        3.26493        2.98598
C          4.22629        4.29514        4.11566
H          3.12753        2.34378        0.39773
H          3.05386        0.62946       -0.06936
H          0.95036        0.27905        1.12815
H          0.75449        1.81864        0.28623
H          4.76048        0.92800        1.73804
H          3.39552       -0.03573        2.35272
H         -0.00973        2.23632        2.64239
H          1.69238        2.80381        4.26468
H          3.81152        1.50580        4.10224
H          5.40725        2.93903        2.89688
H          4.09256        3.74985        2.01656
H          4.47268        3.84793        5.10305
H          3.20161        4.71572        4.18554
H          4.91981        5.14644        3.95389
