32
3-ETHYL-2,2,4-TRIMETHYLPENTANE.gamout	Energy:    -394.0058364
C         34.21363       10.17091        0.25860
C         33.93757       11.62252       -0.22755
C         35.63664        9.93723        0.78640
C         34.61848       11.82904       -1.63060
C         32.42632       12.04421       -0.01597
C         33.86406       11.26095       -2.84794
C         35.09991       13.26737       -1.91366
C         32.16705       12.16382        1.50932
C         32.11940       13.43166       -0.62499
C         31.41893       11.02031       -0.59422
H         33.50163        9.89633        1.06497
H         34.00486        9.45765       -0.57088
H         34.50782       12.29475        0.45718
H         35.78756        8.87895        1.08616
H         36.41357       10.17378        0.02818
H         35.84358       10.56827        1.67748
H         35.55555       11.23165       -1.55217
H         34.51983       11.27158       -3.74465
H         33.53930       10.21094       -2.69468
H         32.96512       11.86187       -3.09861
H         35.78736       13.27657       -2.78685
H         35.65777       13.68659       -1.04946
H         34.27219       13.96582       -2.14777
H         31.11322       12.45650        1.70413
H         32.34707       11.21050        2.04725
H         32.81919       12.93738        1.96885
H         31.08537       13.73967       -0.35946
H         32.18700       13.43400       -1.73117
H         32.80849       14.21054       -0.23641
H         31.49774       10.92498       -1.69422
H         31.54995       10.00951       -0.15628
H         30.37975       11.34083       -0.36525
