20
3-ETHOXY-1,2-PROPANEDIOL.gamout	Energy:    -423.0765135
C         -0.14119       -0.07333        2.22015
C          0.96088        0.53914        3.07382
O          1.98813        1.01600        2.22448
C          3.05155        1.62708        2.92605
C          4.07160        2.17877        1.93952
C          5.07790        3.11344        2.63160
O          4.76742        1.08450        1.34617
O          4.38842        4.22568        3.18282
H         -0.56673        0.68439        1.53101
H         -0.95817       -0.46655        2.85897
H          0.25861       -0.90714        1.60746
H          0.55241        1.37546        3.70020
H          1.36499       -0.21971        3.79388
H          2.68726        2.47065        3.56310
H          3.56443        0.89073        3.59929
H          3.50636        2.76793        1.17679
H          5.62860        2.51669        3.40126
H          5.83454        3.42786        1.86728
H          5.16347        1.40528        0.51534
H          5.03616        4.77495        3.66019
