17
3-ETHYLPYRIDINE.gamout	Energy:    -326.6720756
C          1.85250        2.15609       -0.99188
C          2.67183        1.64577        0.20981
C          2.95502        0.15871        0.15112
C          4.03370       -0.37011       -0.58788
C          2.12396       -0.77484        0.81252
C          4.22523       -1.75933       -0.63528
N          2.29164       -2.10696        0.77777
C          3.32499       -2.58451        0.06266
H          1.66765        3.24773       -0.91450
H          2.38136        1.96785       -1.94964
H          0.86809        1.64676       -1.05167
H          2.12771        1.87601        1.15145
H          3.63436        2.20078        0.26220
H          4.72356        0.30748       -1.11932
H          1.27024       -0.40654        1.41487
H          5.06201       -2.19912       -1.20078
H          3.44743       -3.68347        0.04602
