19
3-ETHYLCYCLOPENTENE.gamout	Energy:    -273.7427801
C          2.12795        3.29022        0.87562
C          2.76778        1.93457        1.20497
C          2.55290        1.42895        2.65145
C          1.07764        1.10372        3.03737
C          2.97357        2.38978        3.75206
C          0.93961        1.45840        4.54371
C          2.09840        2.40675        4.77809
H          2.32893        3.57817       -0.17711
H          1.02527        3.27783        1.00680
H          2.52506        4.09606        1.52830
H          2.39150        1.15898        0.50012
H          3.86363        1.99550        1.01681
H          3.16994        0.50138        2.75521
H          0.39680        1.75598        2.44914
H          0.80022        0.05538        2.80448
H          3.91991        2.95522        3.72147
H         -0.04852        1.90145        4.79722
H          1.04359        0.55707        5.19435
H          2.22101        2.98710        5.70722
