32
3-ETHYL-2,3,4-TRIMETHYLPENTANE.gamout	Energy:    -394.0038081
C         -0.62766       13.46182       -0.04643
C          0.59685       14.39992       -0.11883
C          2.03243       13.72876       -0.01582
C          0.44070       15.35830       -1.31614
C          2.53120       13.12518       -1.39224
C          3.02531       14.85420        0.38870
C          2.04714       12.63183        1.09248
C          1.63655       12.03420       -2.01417
C          3.98442       12.60193       -1.35318
C          1.69861       13.08164        2.52031
H         -1.55443       14.06919        0.03606
H         -0.74137       12.82368       -0.94456
H         -0.60342       12.79302        0.83669
H          0.52933       15.03570        0.79394
H          1.26903       16.09285       -1.39092
H         -0.50069       15.94097       -1.22543
H          0.38836       14.81386       -2.28311
H          2.53272       13.98155       -2.10426
H          3.99111       14.44437        0.74882
H          2.61453       15.48460        1.20398
H          3.25140       15.52739       -0.46451
H          1.36677       11.80330        0.80061
H          3.06414       12.18328        1.11531
H          2.11639       11.63090       -2.93106
H          0.63991       12.41279       -2.31329
H          1.47809       11.17500       -1.32824
H          4.31259       12.32480       -2.37729
H          4.70669       13.35141       -0.97328
H          4.08388       11.68871       -0.72815
H          1.74374       12.22091        3.22025
H          2.40678       13.84600        2.90231
H          0.67718       13.50930        2.60074
