16
3-HEXYNE.gamout	Energy:    -234.4215862
C          1.86781        2.30539        1.24696
C          0.71530        3.20877        1.33029
C          1.03395        4.66541        0.93377
C          2.83840        1.55955        1.17143
C          4.00930        0.68055        1.08373
C          5.35522        1.43466        1.06564
H          0.30916        3.18694        2.36736
H         -0.10153        2.81762        0.68175
H          0.12742        5.29973        1.01600
H          1.40190        4.72301       -0.11075
H          1.81700        5.09482        1.59111
H          3.92437        0.04954        0.16974
H          3.99419       -0.03179        1.94011
H          5.41454        2.12313        0.19829
H          6.20213        0.72114        0.99887
H          5.48500        2.03999        1.98561
