19
3-HEXANONE.gamout	Energy:    -310.8598666
O         -0.67698       -1.30480        0.03820
C          0.80774        0.59278       -0.00365
C          1.99198       -0.37965        0.01153
C         -0.56314       -0.08700        0.01213
C         -1.78631        0.83328       -0.00584
C          3.35466        0.32270       -0.00529
C         -3.12118        0.08899        0.01160
H          0.84950        1.25922       -0.89760
H          0.85322        1.29268        0.86419
H          1.90337       -1.03434        0.90493
H          1.89812       -1.06566       -0.85745
H         -1.69810        1.49298       -0.90018
H         -1.69533        1.52918        0.86038
H          4.18655       -0.41171        0.00463
H          3.48556        0.98516        0.87734
H          3.47938        0.95373       -0.91156
H         -3.97267        0.79928       -0.00082
H         -3.21411       -0.58245       -0.86541
H         -3.21003       -0.54707        0.91492
