21
3-HEXANOL.gamout	Energy:    -312.0567745
C          3.11014        0.25908        0.18085
C          1.74352        0.79411       -0.25981
C          0.55783       -0.04892        0.24940
C         -0.80302        0.53858       -0.16782
C         -2.01295       -0.24945        0.35431
C         -3.35959        0.30673       -0.12276
O          0.68575       -1.42053       -0.14432
H          3.21712        0.29415        1.28600
H          3.22931       -0.79932       -0.12726
H          3.94230        0.84744       -0.25742
H          1.60773        1.84481        0.08148
H          1.68788        0.83288       -1.37427
H          0.60035       -0.08304        1.36312
H         -0.85700        1.59569        0.17989
H         -0.83842        0.58973       -1.28349
H         -1.89941       -1.30973        0.04136
H         -1.98295       -0.26330        1.46761
H         -3.50935        1.35659        0.21023
H         -3.42994        0.30210       -1.23193
H         -4.21027       -0.29009        0.26711
H          0.66009       -1.43433       -1.12201
