24
3-METHYL-CIS-2-HEPTENE.gamout	Energy:    -314.2346003
C          0.36419       19.85447       -0.67293
C          1.20011       20.74897        0.25092
C          1.19016       22.23066       -0.15714
C          2.03844       23.13254        0.76811
C          1.99073       24.60737        0.40735
C          2.96944       25.25048       -0.27846
C          0.74986       25.34837        0.85551
C          4.26106       24.68988       -0.80521
H          0.39332       18.79201       -0.35290
H         -0.70175       20.16858       -0.68632
H          0.73212       19.89722       -1.72055
H          2.25225       20.38282        0.27130
H          0.82806       20.65591        1.29684
H          0.13847       22.59711       -0.17409
H          1.56393       22.33213       -1.20112
H          3.08631       22.76367        0.76388
H          1.67403       23.00825        1.81442
H          2.80805       26.32624       -0.48505
H          0.65152       25.33277        1.96463
H          0.75694       26.40741        0.52716
H         -0.17709       24.87802        0.45741
H          4.40808       23.61944       -0.55921
H          4.31690       24.78587       -1.91307
H          5.13556       25.25157       -0.40655
