20
3-METHYLPENTANE.gamout	Energy:    -236.8921433
C          2.10715        2.60454        1.47178
C          2.08282        2.04228        2.91260
C          3.51454        2.01590        3.49971
C          1.40061        0.66556        2.99012
C          0.73253        2.83009        0.82801
C          3.61089        1.61430        4.97759
H          2.66619        3.56726        1.48337
H          2.71041        1.91884        0.83183
H          1.48569        2.75319        3.53493
H          4.14052        1.32852        2.88380
H          3.96247        3.02602        3.36614
H          1.95638       -0.08741        2.38787
H          0.35968        0.69566        2.60826
H          1.35323        0.28980        4.03250
H          0.08343        3.46267        1.47151
H          0.82719        3.34199       -0.15206
H          0.19383        1.87652        0.64902
H          2.94486        2.24079        5.60977
H          3.32416        0.55499        5.14343
H          4.64444        1.73734        5.36314
