18
3-METHYL-CIS-2-PENTENE.gamout	Energy:    -235.6687201
C          3.46539        1.91083        1.22807
C          2.11006        2.59576        1.16902
C          0.93627        1.93494        1.00095
C          2.13076        4.09982        1.33438
C          4.02156        1.74774        2.65848
C          0.71428        0.45715        0.83587
H          3.41040        0.91091        0.74863
H          4.19349        2.49947        0.62418
H          0.01601        2.55050        0.99303
H          2.60142        4.40171        2.29678
H          1.11108        4.53402        1.30764
H          2.73176        4.58322        0.53122
H          4.14001        2.72499        3.17152
H          5.01751        1.25742        2.64380
H          3.34398        1.12628        3.28012
H          0.14741        0.03710        1.69738
H          0.10065        0.24245       -0.06724
H          1.65639       -0.11965        0.74755
