16
3-METHYLCYCLOPENTENE.gamout	Energy:    -234.4616978
C          0.62392        2.31012        2.08438
C          1.78611        1.30561        2.04343
C          2.53434        1.12854        3.39840
C          4.02191        0.86884        3.03473
C          4.13172        1.44034        1.63676
C          2.91773        1.67263        1.09652
H          0.98344        3.32091        2.37424
H          0.12793        2.39788        1.09459
H         -0.15031        2.00171        2.81853
H          1.36797        0.31988        1.71747
H          2.46153        2.08089        3.96922
H          2.09455        0.33459        4.03646
H          4.73135        1.33074        3.75606
H          4.26415       -0.22105        3.02683
H          5.09380        1.59334        1.12105
H          2.73983        2.04466        0.07379
