24
3-METHYL-2-ISOPROPYL-1-BUTENE.gamout	Energy:    -314.2263450
C          0.06122       19.32631       -0.64827
C          1.35086       19.79859        0.05711
C          1.28007       21.28622        0.43353
C          1.68001       18.90681        1.27168
C          2.27081       22.24185       -0.23058
C          0.37320       21.74767        1.32148
C          3.73256       21.91274        0.14102
C          2.08828       22.29999       -1.76246
H          0.14805       18.26667       -0.97127
H         -0.81613       19.40249        0.02812
H         -0.15657       19.94033       -1.54617
H          2.18255       19.67457       -0.67204
H          2.62507       19.21760        1.76334
H          1.78756       17.84379        0.96661
H          0.87652       18.95726        2.03677
H          2.04720       23.25764        0.16701
H          0.32685       22.81761        1.58565
H         -0.35526       21.08542        1.81915
H          4.42913       22.65258       -0.30775
H          3.88432       21.92721        1.24010
H          4.03652       20.91029       -0.22991
H          2.78074       23.04379       -2.21085
H          1.05303       22.58961       -2.03733
H          2.30558       21.32137       -2.24262
