16
3-METHYL-CIS-1,3-PENTADIENE.gamout	Energy:    -234.4389837
C          1.28151        2.54115        1.07140
C          2.61320        1.91264        1.22248
C          3.77030        2.59436        1.45434
C          2.61022        0.39723        1.15347
C          0.96945        3.65193        0.36653
C          3.96379        4.07211        1.63872
H          0.45058        1.99246        1.55884
H          4.68609        1.98078        1.55460
H          3.62255       -0.02356        1.31742
H          2.24216        0.03759        0.16731
H          1.92907       -0.03718        1.91916
H          1.72577        4.21363       -0.20516
H         -0.06874        4.01857        0.31590
H          4.64037        4.27329        2.49769
H          3.00783        4.60645        1.80911
H          4.45011        4.53704        0.75055
