14
3-METHYLPYRIDINE.gamout	Energy:    -287.3897727
C          2.93239        1.70676       -0.23735
C          3.09230        0.20671       -0.16115
C          4.34303       -0.42116       -0.34444
C          1.99259       -0.64190        0.09929
C          4.43475       -1.81794       -0.26173
N          2.06244       -1.98128        0.18194
C          3.26481       -2.55334        0.00384
H          3.54582        2.21983        0.53401
H          3.25674        2.09958       -1.22444
H          1.87688        2.00799       -0.08303
H          5.24133        0.18510       -0.55118
H          0.98986       -0.19662        0.25014
H          5.39863       -2.33286       -0.40080
H          3.30189       -3.65631        0.07542
