24
3-METHYL-TRANS-2-HEPTENE.gamout	Energy:    -314.2348193
C          0.23557       18.87013       -0.66027
C          1.21007       19.78873        0.08643
C          0.95415       21.28438       -0.15759
C          1.93634       22.20802        0.59529
C          1.71109       23.69484        0.37397
C          2.61888       24.43207       -0.31542
C          0.43899       24.25763        0.96704
C          2.57770       25.89900       -0.64135
H          0.44281       17.79855       -0.45890
H         -0.81665       19.06726       -0.36176
H          0.29818       19.02108       -1.75943
H          2.25646       19.54222       -0.20579
H          1.15339       19.58592        1.18046
H         -0.09307       21.52224        0.13736
H          1.01614       21.50211       -1.24819
H          2.97621       21.94369        0.30301
H          1.85700       21.99033        1.68734
H          3.51206       23.89523       -0.68987
H          0.37472       24.02708        2.05384
H          0.35295       25.35483        0.84849
H         -0.46300       23.80240        0.50139
H          1.68178       26.41244       -0.23936
H          3.47384       26.42412       -0.24109
H          2.59299       26.06734       -1.74172
