12
3-METHYLTHIOPHENE.gamout	Energy:    -592.0993807
C          3.49170        0.54363        0.91280
C          2.81009        1.88767        0.85661
C          1.38392        2.06598        0.75556
C          3.46744        3.10822        0.89310
C          0.99883        3.39166        0.71784
S          2.37031        4.45330        0.80636
H          3.13415       -0.05589        1.77747
H          3.28666       -0.05311       -0.00214
H          4.59072        0.64785        1.00692
H          0.66844        1.23094        0.71223
H          4.54782        3.28991        0.96733
H         -0.01418        3.80758        0.64377
