19
3-METHYL-1,5-HEXADIENE.gamout	Energy:    -273.7078193
C          3.48568        0.93677        1.91327
C          2.91738        2.12349        1.07625
C          1.45275        2.38473        1.41059
C          3.77755        3.39472        1.22479
C          4.85421        0.48154        1.48056
C          0.97735        2.76416        2.61193
C          5.94968        0.42809        2.26149
H          2.77358        0.08498        1.81866
H          3.49648        1.21584        2.98997
H          2.96171        1.81264        0.00789
H          0.72885        2.24176        0.58656
H          3.77045        3.75638        2.27492
H          3.39213        4.21573        0.58595
H          4.83289        3.19878        0.94270
H          4.94037        0.15640        0.42482
H         -0.09986        2.93153        2.77402
H          1.63592        2.92814        3.48280
H          5.91978        0.73952        3.32032
H          6.91674        0.06611        1.87571
