16
3-METHYL-1-PENTYNE.gamout	Energy:    -234.4109024
C          0.92880        3.34883        1.50449
C          1.79468        2.11800        1.78951
C          3.18330        2.13076        1.09282
C          3.94026        0.80066        1.31335
C          3.99801        3.27893        1.51902
C          4.67134        4.23076        1.89323
H          1.43199        4.27983        1.83849
H          0.71689        3.45374        0.41885
H         -0.04528        3.28129        2.03135
H          1.26498        1.19674        1.45928
H          1.95451        2.00829        2.88533
H          3.00479        2.24515       -0.00352
H          4.92145        0.80616        0.79773
H          4.12319        0.62875        2.39420
H          3.34582       -0.05094        0.92210
H          5.27081        5.06972        2.21862
