15
3-METHYL-1-BUTENE.gamout	Energy:    -196.3785299
C          3.40936        2.73707        1.26886
C          2.13321        2.02412        1.66764
C          2.10568        0.53248        1.30812
C          0.90273        2.76827        1.10254
C          4.49307        2.20417        0.67372
H          3.42149        3.81971        1.50252
H          2.06978        2.10589        2.78123
H          1.15923        0.06382        1.64866
H          2.17712        0.38074        0.20943
H          2.94369       -0.02046        1.78083
H          0.89574        2.73578       -0.00804
H         -0.04159        2.30905        1.46294
H          0.89636        3.83635        1.40643
H          5.36892        2.82602        0.42729
H          4.55634        1.13629        0.40760
