32
3-METHYL-4-ETHYLHEPTANE.gamout	Energy:    -394.0152867
C          0.59232       21.18324        1.42687
C          1.74739       22.16311        1.19299
C          1.69001       22.86381       -0.17728
C          2.82708       23.89441       -0.43547
C          3.49478       23.73841       -1.83859
C          2.37319       25.35494       -0.19392
C          4.28974       22.41949       -1.99692
C          2.50497       23.91058       -3.00520
C          5.49354       22.25334       -1.05918
C          1.93425       25.68111        1.23920
H          0.66775       20.68493        2.41598
H         -0.39124       21.69948        1.38938
H          0.57189       20.38520        0.65333
H          2.71838       21.62448        1.28154
H          1.75888       22.92577        2.00285
H          0.69952       23.36303       -0.28978
H          1.70113       22.07265       -0.96066
H          3.62956       23.69276        0.31192
H          4.24063       24.56574       -1.91732
H          3.20882       26.03319       -0.48068
H          1.53747       25.59961       -0.88850
H          3.59929       21.55238       -1.88179
H          4.64873       22.36550       -3.04935
H          3.03526       23.87265       -3.98021
H          1.96819       24.88053       -2.96204
H          1.73767       23.10649       -3.02171
H          6.05975       21.32913       -1.29788
H          6.19682       23.10873       -1.15269
H          5.19623       22.18525        0.00810
H          1.68247       26.75716        1.34558
H          1.03338       25.10562        1.53859
H          2.73471       25.45298        1.97587
