18
3-METHYL_SULFOLANE.gamout	Energy:    -744.7927076
O          0.95482       -3.03635       -0.38197
S          0.87361       -2.10930        0.77447
O          0.32731       -2.54463        2.08423
C          0.03081       -0.53690        0.24140
C          2.53422       -1.30362        1.04473
C          0.98010        0.60448        0.63644
C          2.41902        0.07421        0.39166
C          0.68667        1.91482       -0.10333
H         -0.95676       -0.52133        0.74026
H         -0.09531       -0.62378       -0.85713
H          2.66184       -1.25823        2.14420
H          3.28947       -1.97948        0.60097
H          0.86745        0.77893        1.73115
H          2.60035       -0.00390       -0.70340
H          3.17641        0.77739        0.79774
H         -0.34192        2.27748        0.09955
H          1.39288        2.71231        0.20910
H          0.78880        1.78294       -1.20170
