24
3-METHYL-TRANS-3-HEPTENE.gamout	Energy:    -314.2343582
C          1.12779       -0.33153        0.40859
C          2.58608       -0.03216        0.05384
C          3.06031       -0.39845       -1.34430
C          2.24655       -0.97943       -2.26191
C          2.57467       -1.37808       -3.67861
C          1.74197       -0.62209       -4.73825
C          2.03014       -1.07977       -6.17319
C          4.51289       -0.06064       -1.59973
H          0.90252       -0.02076        1.44976
H          0.89953       -1.41517        0.32949
H          0.42330        0.20888       -0.25802
H          3.25821       -0.54149        0.78575
H          2.78886        1.05471        0.20916
H          1.20214       -1.18283       -1.96361
H          2.38167       -2.47051       -3.80499
H          3.65536       -1.23538       -3.89382
H          1.94036        0.46865       -4.64131
H          0.65909       -0.75339       -4.51233
H          3.09855       -0.92666       -6.43830
H          1.42043       -0.52059       -6.91320
H          1.81010       -2.16072       -6.30855
H          4.70492        1.02359       -1.43637
H          4.84364       -0.31167       -2.62483
H          5.17782       -0.60072       -0.88843
