21
3-METHYL-2-ETHYL-1-BUTENE.gamout	Energy:    -274.9463772
C          1.95306        1.35564        2.24472
C          3.34631        1.70825        1.71324
C          4.48265        1.42375        2.68206
C          3.54818        2.23873        0.48811
C          1.41756        2.47678        3.16560
C          0.92541        1.01873        1.15158
C          5.88802        1.85670        2.25949
H          2.07674        0.44438        2.87747
H          4.23023        1.89028        3.66336
H          4.47724        0.32710        2.89053
H          4.55332        2.51252        0.13222
H          2.71772        2.42442       -0.21062
H          0.45240        2.18489        3.63189
H          1.24734        3.40753        2.58359
H          2.12194        2.72078        3.98785
H         -0.02494        0.66523        1.60376
H          1.29998        0.22557        0.47276
H          0.67963        1.90742        0.53220
H          5.94401        2.95223        2.08819
H          6.21041        1.35528        1.32275
H          6.63098        1.60227        3.04319
