32
3-METHYLNONANE.gamout	Energy:    -394.0220103
C          4.05770        2.30843        0.86563
C          2.55338        2.12286        1.19161
C          1.93487        3.39112        1.82769
C          2.29324        0.86130        2.03565
C          4.99288        2.57741        2.05745
C          0.40068        3.43415        1.81928
C          6.46452        2.74866        1.64784
C          7.41292        3.02295        2.82536
C          8.88393        3.19466        2.41560
C          9.82314        3.48701        3.59223
H          4.16054        3.14893        0.14119
H          4.41742        1.40307        0.32411
H          2.04378        1.97434        0.20990
H          2.29951        3.49179        2.87546
H          2.32314        4.28437        1.28743
H          2.67752       -0.04983        1.52997
H          1.21005        0.70433        2.21751
H          2.78652        0.92659        3.02902
H          4.91777        1.74848        2.79705
H          4.66266        3.49308        2.59818
H         -0.00009        3.36815        0.78471
H          0.02155        4.37893        2.26207
H         -0.04536        2.60054        2.40134
H          6.80553        1.83716        1.10392
H          6.54699        3.58188        0.91156
H          7.07340        3.93769        3.36516
H          7.33027        2.19370        3.56616
H          9.22412        2.27687        1.88346
H          8.96004        4.01667        1.66727
H         10.87527        3.60490        3.25882
H          9.53342        4.42244        4.11765
H          9.80212        2.66876        4.34411
