24
3-METHYL-CIS-3-HEPTENE.gamout	Energy:    -314.2339372
C          2.04433        0.83574       -0.70713
C          2.13250       -0.58964       -0.12466
C          2.61800       -0.63156        1.31539
C          1.79727       -0.78435        2.38563
C          0.30199       -0.96794        2.40250
C         -0.14200       -2.30292        3.04236
C         -1.66520       -2.45638        3.13276
C          4.11061       -0.47144        1.50534
H          1.72289        0.81751       -1.76984
H          3.02212        1.36070       -0.66830
H          1.31519        1.45305       -0.14202
H          2.82824       -1.19250       -0.75215
H          1.13940       -1.07762       -0.21356
H          2.27401       -0.78946        3.38576
H         -0.12255       -0.89060        1.37821
H         -0.15915       -0.13462        2.98526
H          0.30456       -2.38362        4.05931
H          0.28980       -3.14373        2.45491
H         -2.12017       -1.64552        3.74166
H         -1.95304       -3.42270        3.59679
H         -2.13627       -2.41606        2.12726
H          4.66880       -1.29356        1.00272
H          4.39316       -0.46884        2.57719
H          4.48483        0.47534        1.05542
