19
3-METHYL-1-HEXYNE.gamout	Energy:    -273.6937273
C          0.52284        3.39609        1.08102
C          1.96354        3.41390        1.60753
C          2.72345        2.10784        1.34208
C          4.19997        2.10429        1.82441
C          4.99651        3.14821        1.16123
C          4.84968        0.71301        1.64618
C          5.65323        4.01317        0.59557
H          0.49694        3.23601       -0.01816
H         -0.07436        2.58297        1.54741
H          0.00214        4.35328        1.29075
H          1.96012        3.61909        2.70252
H          2.52236        4.25678        1.14412
H          2.70771        1.87615        0.25284
H          2.20346        1.26203        1.84661
H          4.19488        2.34275        2.91523
H          4.85321        0.41672        0.57679
H          5.89883        0.70745        2.00400
H          4.28413       -0.05349        2.21575
H          6.23745        4.77702        0.10127
