21
3-METHYL-1-HEXENE.gamout	Energy:    -274.9419960
C          2.63218        0.98466        3.36724
C          3.44539        1.25062        2.06732
C          4.20374        2.55924        2.11903
C          2.56639        1.16999        0.80030
C          1.60158        2.05385        3.77197
C          5.54111        2.68137        2.21467
C          0.79241        1.65540        5.01313
H          2.10762        0.00798        3.24920
H          3.35126        0.84789        4.20565
H          4.20280        0.43637        2.00350
H          3.59098        3.48016        2.06539
H          2.06188        0.18301        0.73017
H          1.77573        1.95050        0.79320
H          3.17511        1.30782       -0.11685
H          2.12147        3.01809        3.96611
H          0.90511        2.24736        2.92577
H          6.19714        1.79423        2.26229
H          6.03085        3.66824        2.24750
H          0.21721        0.72078        4.83840
H          1.45432        1.47623        5.88745
H          0.06660        2.44424        5.30163
