21
3-METHYL-3-PENTANOL.gamout	Energy:    -312.0573835
C          0.01290        1.53756       -0.44104
C          0.00026        0.06638       -0.00219
C          1.26456       -0.29069        0.82954
C          2.59815       -0.14228        0.08743
C         -1.26498       -0.26914        0.83710
C         -2.60013       -0.10502        0.10134
O         -0.01014       -0.69693       -1.22498
H          0.89372        1.74497       -1.08025
H         -0.88960        1.77659       -1.03760
H          0.04465        2.21226        0.43834
H          1.26635        0.31878        1.76077
H          1.14956       -1.34695        1.17016
H          2.55978       -0.68089       -0.88128
H          2.84063        0.91835       -0.13042
H          3.43670       -0.55623        0.68427
H         -1.16328       -1.32578        1.18042
H         -1.25313        0.34463        1.76548
H         -2.82577        0.95719       -0.12665
H         -2.57797       -0.65473       -0.86162
H         -3.44178       -0.49827        0.70776
H         -0.00656       -1.64065       -0.97014
