24
3-METHYL-1-HEPTENE.gamout	Energy:    -314.2271646
C         51.99198       29.94823       -0.06633
C         50.75133       29.02103       -0.08523
C         49.92808       29.21225       -1.33999
C         51.16983       27.54272        0.06441
C         51.67883       31.45033       -0.02261
C         48.64155       29.60506       -1.38797
C         52.93060       32.34065        0.00841
C         52.61884       33.84121        0.06160
H         52.61848       29.67650        0.81416
H         52.62324       29.72632       -0.95954
H         50.10933       29.29047        0.78585
H         50.45542       28.99070       -2.28997
H         50.28584       26.87361        0.09417
H         51.75346       27.38582        0.99642
H         51.80786       27.21999       -0.78693
H         51.04713       31.72369       -0.89804
H         51.05124       31.66694        0.87369
H         48.10226       29.71150       -2.34347
H         48.07649       29.83260       -0.46705
H         53.55832       32.05840        0.88473
H         53.55827       32.12338       -0.88642
H         53.54508       34.45264        0.08453
H         52.02717       34.16393       -0.82178
H         52.02615       34.10061        0.96526
