16
3-METHYL-TRANS-1,3-PENTADIENE.gamout	Energy:    -234.4375988
C          1.94848        0.60100        4.12998
C          2.88012        1.09297        3.08654
C          2.45746        1.83914        2.02739
C          4.34490        0.71472        3.26045
C          0.61084        0.78080        4.23037
C          3.30479        2.38536        0.91658
H          2.43368        0.00756        4.92731
H          1.38036        2.07846        1.96181
H          4.70928        0.06716        2.43381
H          5.00543        1.60700        3.28644
H          4.50602        0.15819        4.20522
H          0.04901        0.34920        5.07324
H          0.02760        1.35501        3.49135
H          4.36951        2.09145        0.99672
H          2.93324        2.04400       -0.07600
H          3.26312        3.49824        0.88856
