26
3-METHYL-3-ETHYLPENTANE.gamout	Energy:    -315.4509232
C          3.93278        2.04645        1.08381
C          3.30821        3.00570        2.14369
C          3.90799        4.43169        1.94723
C          1.76592        3.07099        1.91918
C          3.61271        2.49002        3.57077
C          3.41839        0.59903        1.05183
C          5.43427        4.57762        2.04573
C          0.96205        4.02771        2.81262
H          3.78735        2.50330        0.07753
H          5.03270        2.01787        1.24668
H          3.57438        4.81129        0.95337
H          3.44886        5.11018        2.69959
H          1.35311        2.04651        2.04952
H          1.58388        3.33687        0.85182
H          3.07840        1.53974        3.77995
H          3.30067        3.22133        4.34565
H          4.69664        2.29868        3.71661
H          3.97344        0.00700        0.29426
H          2.34269        0.53490        0.78710
H          3.55564        0.08728        2.02739
H          5.97023        4.01669        1.25221
H          5.82553        4.22814        3.02414
H          5.72704        5.64339        1.94089
H          1.09606        3.80591        3.89239
H         -0.12341        3.93899        2.59702
H          1.23661        5.09126        2.65382
