26
3-METHYLHEPTANE.gamout	Energy:    -315.4579034
C          4.62889        2.66959        1.91602
C          3.33521        1.97188        1.43564
C          2.10409        2.85053        1.75926
C          3.19748        0.55016        2.00829
C          5.94758        2.01516        1.47628
C          0.77482        2.37402        1.15967
C          7.19828        2.79111        1.92048
C          8.51521        2.13890        1.48122
H          4.61743        3.72267        1.55121
H          4.60635        2.74086        3.02964
H          3.39806        1.88780        0.32288
H          2.00686        2.93463        2.86708
H          2.31138        3.88444        1.40121
H          3.12656        0.57599        3.11850
H          2.29138        0.03570        1.62748
H          4.06570       -0.08740        1.74395
H          6.01137        0.97724        1.87409
H          5.95466        1.91182        0.36565
H         -0.04415        3.08937        1.38259
H          0.84045        2.27968        0.05408
H          0.46123        1.38682        1.55867
H          7.14583        3.83081        1.52365
H          7.18589        2.89564        3.02975
H          8.57567        2.05359        0.37486
H          9.39634        2.72305        1.81929
H          8.61578        1.11287        1.89575
