21
3-METHYL-CIS-2-HEXENE.gamout	Energy:    -274.9497806
C          3.68876        1.35059        1.27770
C          4.02804        0.85242        2.70412
C          5.24504        1.52308        3.35243
C          3.35601        2.83503        1.17079
C          4.46158        3.73586        0.66668
C          2.13986        3.34499        1.49172
C          0.92820        2.59571        1.97325
H          4.54857        1.12326        0.60800
H          2.83797        0.74688        0.89213
H          3.13851        0.99835        3.35619
H          4.19607       -0.24726        2.65603
H          6.15955        1.39896        2.73263
H          5.08329        2.61177        3.49842
H          5.46103        1.08623        4.35000
H          4.15466        4.80139        0.64925
H          5.37884        3.65279        1.29083
H          4.76690        3.45099       -0.36595
H          2.00829        4.43909        1.38645
H          1.06438        1.49587        1.96236
H          0.65758        2.88616        3.01370
H          0.03768        2.83211        1.34915
