29
3-METHYLOCTANE.gamout	Energy:    -354.7406219
C          4.48685        0.61837        0.22506
C          3.25795       -0.29958        0.21295
C          1.92271        0.45772        0.14283
C          0.68496       -0.45411        0.13540
C         -0.64303        0.31547        0.06550
C         -1.92221       -0.54942       -0.01996
C         -3.15358        0.34846       -0.28625
C         -4.46334       -0.39386       -0.58121
H          4.46579        1.31112        1.09381
H          5.43207        0.03956        0.28444
H          4.53583        1.24328       -0.69257
H          3.32619       -1.00204       -0.64899
H          3.26500       -0.94252        1.12281
H          1.85357        1.16110        1.00518
H          1.91261        1.10185       -0.76741
H          0.75192       -1.15496       -0.72927
H          0.70870       -1.09557        1.04501
H         -0.72643        0.99043        0.95012
H         -0.61513        0.98935       -0.82173
H         -3.29513        1.02820        0.58636
H         -2.91765        1.01598       -1.14585
H         -4.35250       -1.07997       -1.44853
H         -4.80802       -1.00192        0.28085
H         -5.28032        0.31744       -0.82404
C         -2.11034       -1.43064        1.22792
H         -1.80835       -1.22783       -0.90047
H         -2.22781       -0.80412        2.13980
H         -1.24523       -2.10484        1.39321
H         -3.00896       -2.07600        1.14664
