18
3-METHYL-1-BUTANOL.gamout	Energy:    -272.7663993
C          2.48881        0.72404        1.53886
C          2.61783        1.73494        2.69987
C          1.05597        0.37229        1.11631
C          2.01065        1.21322        4.01533
C          4.08695        2.14702        2.89864
O          1.00839       -0.43684       -0.05291
H          3.02823       -0.21507        1.81520
H          3.00893        1.12373        0.64034
H          2.05098        2.64968        2.40229
H          0.50434        1.30453        0.86223
H          0.49900       -0.10036        1.96343
H          2.15841        1.94357        4.83848
H          2.49242        0.26007        4.32772
H          0.92054        1.02500        3.93166
H          4.18909        2.91343        3.69581
H          4.71025        1.27441        3.19416
H          4.52155        2.56706        1.96724
H          1.47029       -1.27007        0.15859
