18
3-METHYL-TRANS-2-PENTENE.gamout	Energy:    -235.6690153
C          3.87583        3.07037        2.15898
C          2.42478        2.64537        1.99618
C          1.94755        1.57296        2.67768
C          1.59648        3.48781        1.05247
C          4.73831        2.89913        0.89266
C          0.56240        0.98902        2.65354
H          3.90792        4.14176        2.46900
H          4.33191        2.49193        2.99114
H          2.66267        1.05054        3.34239
H          0.52895        3.19560        1.03267
H          1.97689        3.42560        0.00897
H          1.64775        4.56252        1.33742
H          4.36662        3.51566        0.04751
H          4.74607        1.84072        0.55722
H          5.78908        3.20296        1.08221
H          0.57892       -0.07136        2.31508
H          0.11482        0.97738        3.67275
H         -0.13263        1.53877        1.98845
