24
3-METHYL-2-ETHYL-1-PENTENE.gamout	Energy:    -314.2290020
C          1.06755        0.98808        0.94038
C          2.01918        1.59291        1.97713
C          1.74790        3.02563        2.40520
C          2.70837        3.64041        3.42747
C          0.71673        3.75009        1.91694
C          2.69399        2.90757        4.79439
C          4.14904        3.75203        2.88215
C          1.32457        2.86402        5.48146
H          0.02133        0.95691        1.31068
H          1.36531       -0.05202        0.69478
H          1.07026        1.56882       -0.00569
H          2.02477        0.94855        2.88700
H          3.06373        1.53183        1.59357
H          2.34707        4.67776        3.61331
H          0.00944        3.34834        1.17480
H          0.54998        4.78861        2.24828
H          3.42722        3.41594        5.46029
H          3.08877        1.87424        4.66318
H          4.79321        4.31201        3.59246
H          4.17042        4.28694        1.91005
H          4.61726        2.75611        2.73130
H          0.94431        3.88754        5.68778
H          1.37660        2.32514        6.45017
H          0.56490        2.35773        4.84987
