17
3-NITROBENZOIC_ACID.gamout	Energy:    -624.8971846
O          8.16042        2.74349       -1.78075
C          6.92737        3.09372       -1.33106
O          6.51037        4.23920       -1.35857
C          6.15154        1.92384       -0.80434
C          6.68076        0.61812       -0.79501
C          4.85169        2.16310       -0.30652
C          5.88916       -0.41776       -0.28359
C          4.07960        1.10618        0.20038
N          6.44134       -1.80347       -0.26891
C          4.59577       -0.20006        0.21581
O          5.71988       -2.69360        0.18646
O          7.58036       -1.96409       -0.71175
H          8.57410        3.57632       -2.09847
H          7.68677        0.39901       -1.17545
H          4.46916        3.19479       -0.32929
H          3.06736        1.29760        0.58771
H          4.02273       -1.05348        0.60431
