25
3-NONYNE.gamout	Energy:    -352.2692820
C          4.50900        2.10880        2.50927
C          4.52757        3.28879        1.50749
C          5.66082        4.19964        1.69148
C          3.35970        1.11049        2.28778
C          6.61514        4.94824        1.87315
C          1.94817        1.65552        2.56292
C          7.76154        5.84186        2.06866
C          0.84983        0.59619        2.40549
C          8.79637        5.79547        0.92500
H          5.48053        1.57398        2.43586
H          4.46370        2.51496        3.54441
H          4.54237        2.88374        0.46869
H          3.58097        3.87057        1.58629
H          3.53112        0.22639        2.94302
H          3.40815        0.71936        1.24435
H          1.72870        2.51118        1.88561
H          1.91645        2.07462        3.59487
H          7.39330        6.88588        2.19377
H          8.26056        5.58684        3.03139
H          0.83053        0.18187        1.37458
H         -0.15705        1.01271        2.61583
H          1.00904       -0.25791        3.09851
H          9.63933        6.48577        1.13403
H          9.20881        4.77332        0.80230
H          8.33738        6.09219       -0.03996
