18
3-PENTANOL.gamout	Energy:    -272.7715905
C          2.57711       -0.04927       -0.01045
C          1.50767        1.04830        0.08548
C          1.47152        1.97942       -1.14210
O          0.26052        0.37053        0.26266
C          4.02422        0.45334       -0.01839
C          0.39338        3.06746       -1.06909
H          2.41226       -0.73073        0.85174
H          2.37011       -0.65444       -0.92181
H          1.73561        1.67772        0.98864
H          2.46869        2.45766       -1.25999
H          1.31262        1.34714       -2.04486
H         -0.41904        1.04954        0.42972
H          4.74122       -0.39291       -0.00667
H          4.25473        1.06165       -0.91847
H          4.24339        1.08259        0.87158
H          0.43304        3.73797       -1.95180
H         -0.62852        2.63002       -1.04671
H          0.51139        3.70456       -0.16512
