22
3-PHENYL-1-PROPANOL.gamout	Energy:    -425.0837789
C         -0.88009        1.16870       -0.47816
C          0.51093        0.96889       -0.45484
C         -1.75192        0.09270       -0.23614
C         -1.22093       -1.18177        0.03021
C          0.17057       -1.37617        0.05278
C          1.05930       -0.30539       -0.18885
H         -1.28527        2.17279       -0.68316
H         -2.84250        0.24781       -0.24916
H         -1.89515       -2.03042        0.22906
H          0.57771       -2.37918        0.26527
H          1.18746        1.81995       -0.64245
C          2.55940       -0.52890       -0.21345
C          3.08997       -0.92931       -1.60613
H          2.82998       -1.32187        0.51840
H          3.07647        0.39720        0.12337
C          4.61032       -1.12991       -1.65233
H          2.80026       -0.14579       -2.34494
H          2.60014       -1.86759       -1.94729
O          5.07878       -1.54166       -2.92790
H          4.90499       -1.93636       -0.94529
H          5.12485       -0.19946       -1.29681
H          4.83865       -0.83935       -3.56172
