33
3-THIAUNDECANE.gamout	Energy:    -792.1280531
S         -3.97824       -0.73382       -0.00915
C          1.36594       -0.42217        0.00265
C          2.63316        0.44682        0.01102
C          0.06099        0.38872        0.00698
C          3.94369       -0.35426        0.00629
C         -1.20894       -0.47817       -0.00177
C          5.20794        0.52030        0.01453
C         -2.49631        0.35386        0.00234
C          6.51481       -0.28209        0.00939
C         -5.29648        0.55057       -0.00111
C         -6.67813       -0.10445       -0.00996
H          1.37929       -1.10270        0.88532
H          1.38162       -1.08905       -0.89031
H          2.61410        1.11438        0.90380
H          2.61629        1.12800       -0.87150
H          0.04573        1.05514        0.90037
H          0.04860        1.06866       -0.87625
H          3.96274       -1.03549        0.88885
H          3.96463       -1.02167       -0.88669
H         -1.20784       -1.15441        0.88268
H         -1.20499       -1.14081       -0.89643
H          5.18445        1.20105       -0.86717
H          5.18269        1.18703        0.90680
H         -2.53091        1.01935       -0.88946
H         -2.53444        1.00547        0.90415
H          6.58907       -0.93007       -0.89027
H          6.58735       -0.94437        0.89875
H          7.40373        0.38272        0.01561
H         -5.16267        1.20316       -0.89171
H         -5.16687        1.18824        0.90086
H         -6.81957       -0.73423       -0.91272
H         -6.82425       -0.74912        0.88142
H         -7.47421        0.66905       -0.00572
