19
4,4-DIMETHYL-2-PENTYNE.gamout	Energy:    -273.7047113
C          2.40061        3.22490        0.72029
C          2.15699        2.17627        1.83767
C          0.78705        2.44537        2.51422
C          2.16195        0.75129        1.22315
C          3.23454        2.27916        2.84554
C          4.13013        2.36907        3.67817
C          5.19744        2.47533        4.67109
H          3.37627        3.05248        0.22186
H          2.40515        4.25380        1.13469
H          1.60155        3.16398       -0.04931
H          0.75713        3.45949        2.96263
H         -0.03184        2.37136        1.76710
H          0.58804        1.70979        3.32033
H          3.13261        0.53338        0.73267
H          1.99206       -0.01861        2.00333
H          1.35893        0.65748        0.46101
H          5.71916        3.45484        4.60775
H          4.80425        2.37644        5.70606
H          5.96402        1.68270        4.53113
