19
4,4-DIMETHYL-1-PENTYNE.gamout	Energy:    -273.6948584
C         -0.00654       19.99369        0.03420
C          1.53568       19.94244        0.00923
C          2.06341       21.41670       -0.01657
C          2.05121       19.22309        1.27298
C          2.01059       19.19509       -1.25428
C          3.51947       21.56439       -0.04129
C          4.73743       21.68773       -0.06204
H         -0.43240       18.96871        0.05249
H         -0.41084       20.51044       -0.86241
H         -0.38068       20.52997        0.93234
H          1.63605       21.93421       -0.90608
H          1.66472       21.95668        0.87298
H          3.16022       19.19212        1.29385
H          1.67721       18.17811        1.30968
H          1.70909       19.73625        2.19714
H          1.63515       19.68528       -2.17797
H          3.11835       19.16719       -1.31162
H          1.63999       18.14826       -1.25469
H          5.81221       21.80322       -0.08084
