24
4,4-DIMETHYL-CIS-2-HEXENE.gamout	Energy:    -314.2292513
C          2.65007        2.58323        2.09520
C          1.61306        2.09000        1.38732
C          3.40722        3.88519        1.86428
C          0.90883        0.79147        1.66929
C          4.87732        3.57346        1.42259
C          5.73416        2.72426        2.37062
C          2.76099        4.74609        0.76033
C          3.40557        4.69006        3.18905
H          3.00739        1.98798        2.95878
H          1.22653        2.66434        0.52482
H          1.33918        0.26342        2.54540
H         -0.17471        0.95209        1.86654
H          0.96397        0.10353        0.79613
H          4.82942        3.07027        0.43125
H          5.38645        4.54934        1.24956
H          5.85415        3.19503        3.36903
H          5.30722        1.71162        2.52545
H          6.75345        2.58691        1.95307
H          1.70840        5.00039        1.00449
H          3.31855        5.69807        0.63602
H          2.76875        4.22612       -0.22059
H          3.81836        4.10082        4.03413
H          4.01342        5.61565        3.09205
H          2.37271        4.98665        3.46752
