21
4,4-DIMETHYL-TRANS-2-PENTENE.gamout	Energy:    -274.9491365
C          3.06147        1.59321        1.73193
C          1.72841        2.05675        2.30409
C          4.26130        2.20343        1.81188
C          1.83876        3.39762        3.05529
C          1.20842        0.96548        3.27602
C          0.72291        2.20525        1.13223
C          5.53837        1.67717        1.21456
H          3.00659        0.62951        1.18526
H          4.34416        3.16551        2.35091
H          2.19456        4.21065        2.38825
H          0.84781        3.70037        3.45427
H          2.53898        3.32933        3.91441
H          0.20672        1.23607        3.67396
H          1.89698        0.83464        4.13710
H          1.11486       -0.01770        2.76738
H         -0.28487        2.48363        1.50914
H          0.62153        1.25438        0.56701
H          1.05335        2.98879        0.41877
H          5.38104        0.71225        0.68980
H          5.97213        2.39648        0.48449
H          6.31654        1.51944        1.99440
