32
4,4-DIMETHYLOCTANE.gamout	Energy:    -394.0193431
C          2.45564        2.70573        4.24060
C          3.95672        2.50715        3.87462
C          2.10117        4.18625        3.97038
C          2.21835        2.41366        5.74024
C          1.52255        1.76836        3.41770
C          4.54394        1.09290        4.01642
C          6.43299        1.29393        2.25192
C          6.05341        1.00468        3.71088
C          0.61067        0.91107        1.18653
C          1.59780        1.85626        1.88451
H          4.55461        3.20631        4.50519
H          4.10516        2.86047        2.82989
H          1.03072        4.39518        4.18343
H          2.29856        4.46951        2.91553
H          2.70891        4.86065        4.61076
H          2.87598        3.03769        6.38275
H          2.40873        1.34935        5.99115
H          1.16642        2.63482        6.01974
H          0.47326        1.97282        3.73464
H          1.71761        0.71492        3.72397
H          4.00317        0.38844        3.34373
H          4.37171        0.71479        5.04824
H          7.52129        1.15787        2.07995
H          6.18328        2.33366        1.95424
H          5.89970        0.61252        1.55390
H          6.41054       -0.01298        3.98474
H          6.60205        1.70482        4.38222
H          0.80101       -0.14904        1.46080
H          0.68046        0.98614        0.08121
H         -0.43945        1.13844        1.47035
H          1.39960        2.90020        1.55480
H          2.63027        1.62253        1.54180
