21
4,4-DIMETHYL-CIS-2-PENTENE.gamout	Energy:    -274.9419791
C          3.21996        1.90327        2.48884
C          1.73223        2.06475        2.14150
C          4.20229        2.82897        2.57546
C          1.07330        0.66505        2.19378
C          1.01708        2.97651        3.17143
C          1.55175        2.63675        0.71212
C          4.15090        4.31746        2.36104
H          3.52956        0.86298        2.70203
H          5.20446        2.44539        2.84737
H          1.17236        0.21576        3.20462
H         -0.00942        0.72168        1.95295
H          1.54482       -0.02968        1.46638
H          1.42249        4.00833        3.16782
H         -0.06994        3.04121        2.94707
H          1.12846        2.57766        4.20129
H          1.98019        3.65412        0.61253
H          0.47280        2.69824        0.45143
H          2.04773        1.98906       -0.04053
H          4.47919        4.85765        3.27722
H          4.85661        4.62493        1.55716
H          3.14737        4.69550        2.09026
