24
4,5-DIMETHYL-1-HEXENE.gamout	Energy:    -314.2222055
C          4.07108        3.65195        2.23172
C          2.55042        3.42551        1.99107
C          2.06368        2.07986        2.61375
C          1.73290        4.63060        2.49412
C          4.67805        4.79929        1.46575
C          0.54188        1.88205        2.46849
C          2.79427        0.85254        2.03379
C          5.70170        4.69632        0.59674
H          4.22352        3.81834        3.32593
H          4.63299        2.72973        1.97827
H          2.39900        3.34623        0.88716
H          2.29245        2.12950        3.70644
H          0.67082        4.57273        2.18386
H          2.12973        5.58604        2.09522
H          1.75687        4.69658        3.60421
H          4.24426        5.80196        1.64133
H          0.23337        1.90656        1.39988
H         -0.04238        2.65637        3.00437
H          0.23329        0.89713        2.87757
H          3.88200        0.85424        2.24671
H          2.66719        0.79958        0.92998
H          2.38236       -0.08605        2.45981
H          6.18197        3.72541        0.38183
H          6.10208        5.57873        0.07149
