32
4,5-DIMETHYLOCTANE.gamout	Energy:    -394.0149346
C          5.41259        1.94524        1.47245
C          3.88948        2.14726        1.76240
C          3.24537        3.14858        0.75830
C          3.09713        0.82591        1.79398
C          6.20383        3.23490        1.80104
C          6.01574        0.73804        2.21448
C          2.30242        4.20559        1.36890
C          7.61925        3.32530        1.20700
C          1.04889        3.66929        2.07395
C          8.34736        4.62295        1.58063
H          5.51101        1.75143        0.37581
H          3.82527        2.59818        2.78327
H          4.04575        3.69518        0.21426
H          2.69870        2.57635       -0.02665
H          2.01502        1.01617        1.94185
H          3.42843        0.15065        2.60831
H          3.20251        0.27346        0.83369
H          6.26242        3.33881        2.91059
H          5.62955        4.12242        1.45266
H          5.58026       -0.22525        1.88205
H          5.85264        0.82258        3.31179
H          7.11068        0.67261        2.04871
H          2.88532        4.83104        2.08368
H          1.98628        4.89863        0.55676
H          8.22869        2.45488        1.53752
H          7.55445        3.24078        0.09790
H          0.41972        3.06643        1.38390
H          0.42010        4.50215        2.45331
H          1.29891        3.02790        2.94489
H          8.46318        4.71927        2.68178
H          7.78654        5.51679        1.23171
H          9.36234        4.67052        1.13386
