13
4-BROMOPHENOL.gamout	Energy:   -2880.7647505
Br        -3.27566        0.00031       -0.02528
O          2.81232       -0.07782        0.03955
C          1.45000       -0.01265        0.02505
C          0.73418       -1.22947        0.01805
C          0.74021        1.20706        0.01708
C         -0.66766       -1.22619        0.00325
C         -0.66473        1.21478        0.00223
C         -1.36383       -0.00330       -0.00466
H          1.29450       -2.17654        0.02432
H          1.28923        2.16429        0.02244
H         -1.21914       -2.17814       -0.00218
H         -1.20969        2.17040       -0.00396
H          3.17021        0.83052        0.04303
