15
4-CHLOROTOLUENE.gamout	Energy:    -730.8630712
Cl        -2.07833       -0.74313       -0.23265
C          2.43288        0.07635       -0.09833
C          1.93159       -1.24152       -0.19914
C          1.49733        1.13070       -0.04071
C          3.92262        0.33788       -0.05470
C          0.55387       -1.50382       -0.24115
C          0.11288        0.89155       -0.08117
C         -0.35240       -0.42957       -0.18157
H          2.63601       -2.08891       -0.24638
H          1.85645        2.17026        0.03846
H          4.39784       -0.16716        0.81339
H          4.14235        1.42103        0.02461
H          4.42883       -0.04250       -0.96769
H          0.17710       -2.53433       -0.32000
H         -0.60482        1.72385       -0.03521
