32
4-CUMYLPHENOL.gamout	Energy:    -655.9725769
O          4.59279       -1.47122        0.02258
C         -0.43662        1.35079        0.05015
C          0.91108        0.59356        0.00977
C         -1.59721        0.32586        0.03514
C         -0.45184        2.23895        1.32002
C         -0.62467        2.27949       -1.17701
C          1.17860       -0.39650        0.98296
C          1.92044        0.84795       -0.94389
C         -1.60331       -0.69742       -0.94282
C         -2.69016        0.38600        0.92565
C          2.39368       -1.09455        1.01214
C          3.14218        0.15520       -0.93215
C         -2.66184       -1.61305       -1.03722
C         -3.75340       -0.53379        0.83754
C          3.39019       -0.82343        0.04999
C         -3.74770       -1.53489       -0.14560
H          0.40334        2.94463        1.29079
H         -1.38146        2.84170        1.38779
H         -0.35888        1.63954        2.24823
H         -1.61875        2.76876       -1.12741
H          0.14431        3.08009       -1.20191
H         -0.57625        1.71971       -2.13283
H          0.41037       -0.63939        1.73506
H          1.76293        1.60781       -1.72338
H         -0.75333       -0.78002       -1.63995
H         -2.72659        1.15813        1.70871
H          2.57120       -1.86149        1.78624
H          3.92091        0.35873       -1.68295
H         -2.63956       -2.39462       -1.81412
H         -4.59174       -0.46269        1.54971
H         -4.58038       -2.25291       -0.21692
H          4.61290       -2.11790        0.75350
