31
4-DECANONE.gamout	Energy:    -467.9909069
C          0.85083        0.14203        0.31298
C          2.38009        0.08250        0.20691
C          2.88267       -0.61338       -1.06782
C          4.41330       -0.67928       -1.18168
C          4.90952       -1.37763       -2.45624
C          6.43573       -1.43849       -2.56242
C          6.95529       -2.13046       -3.82412
O          6.19594       -2.59321       -4.66469
C          8.47504       -2.21516       -3.98050
C          8.94098       -2.91194       -5.26258
C         10.46742       -2.97787       -5.39342
H          0.52279        0.64799        1.24466
H          0.40727       -0.87665        0.31074
H          0.40711        0.69524       -0.54251
H          2.79532       -0.44341        1.09709
H          2.79855        1.11419        0.24912
H          2.46991       -0.08920       -1.96096
H          2.46714       -1.64683       -1.11196
H          4.82508       -1.20295       -0.28726
H          4.82928        0.35441       -1.13724
H          4.50598       -0.86320       -3.35581
H          4.50250       -2.41108       -2.50902
H          6.87861       -1.96049       -1.68134
H          6.87984       -0.41583       -2.52613
H          8.88341       -2.72437       -3.07543
H          8.88232       -1.17821       -3.91794
H          8.50087       -2.38348       -6.13553
H          8.50476       -3.93342       -5.29482
H         10.91955       -1.96272       -5.40086
H         10.77176       -3.48491       -6.33218
H         10.92686       -3.53596       -4.54916
