24
4-ETHYL-TRANS-2-HEXENE.gamout	Energy:    -314.2326906
C          0.86161        1.56033       -0.66334
C          1.60132        2.29569        0.19275
C          1.78678        3.79556        0.15605
C          3.27387        4.17309       -0.07087
C          3.84780        3.71999       -1.41789
C          1.24901        4.45837        1.45171
C          0.68731        0.06816       -0.61419
C         -0.25968        4.29871        1.66939
H          0.33096        2.08894       -1.47988
H          2.13668        1.77253        1.01264
H          1.19778        4.19619       -0.70346
H          3.88090        3.74465        0.76027
H          3.37139        5.27832        0.02239
H          4.91062        4.02137       -1.52578
H          3.28702        4.16680       -2.26711
H          3.79435        2.61739       -1.53298
H          1.80135        4.03550        2.32277
H          1.50821        5.54075        1.42505
H          1.24766       -0.38634        0.22870
H         -0.38393       -0.21230       -0.50294
H          1.03579       -0.41335       -1.55510
H         -0.58729        4.78778        2.61052
H         -0.83821        4.75578        0.83772
H         -0.55327        3.22967        1.72392
