24
4-ETHYL-M-XYLENE.gamout	Energy:    -389.2162931
C          6.68380        2.33955        2.85300
C          6.26291        2.49954        1.37803
C          4.76239        2.39395        1.16488
C          3.90321        3.52358        1.26711
C          4.18472        1.13715        0.88820
C          4.45059        4.90967        1.53595
C          2.51450        3.34276        1.09453
C          2.80087        0.97741        0.72228
C          1.93486        2.08514        0.82816
C          0.43727        1.92672        0.68418
H          6.22061        3.11500        3.49840
H          7.78540        2.41818        2.96920
H          6.36905        1.35250        3.25122
H          6.76747        1.71489        0.77339
H          6.64031        3.47051        0.99170
H          4.84409        0.25725        0.79390
H          5.15259        5.23700        0.73780
H          3.63650        5.65947        1.58935
H          5.01553        4.95950        2.49098
H          1.85763        4.22695        1.16916
H          2.38914       -0.02185        0.50241
H          0.17805        1.12940       -0.04241
H         -0.04646        2.86695        0.34989
H         -0.03248        1.64525        1.65311
