24
4-ETHYL-O-XYLENE.gamout	Energy:    -389.2178770
C          5.95560        3.80489        1.04811
C          6.54832        4.98840        1.83856
C          4.62092        3.32920        1.59221
C          4.55592        2.35951        2.61506
C          3.40570        3.86538        1.12165
C          3.33689        1.92056        3.16918
C          2.18103        3.44145        1.66141
C          3.32490        0.87306        4.25952
C          2.11836        2.47291        2.68326
C          0.78722        2.02797        3.24485
H          6.67987        2.96096        1.05670
H          5.83301        4.10104       -0.01656
H          7.52303        5.30905        1.41389
H          6.71277        4.71724        2.90247
H          5.86498        5.86319        1.82221
H          5.49553        1.92100        2.99507
H          3.41576        4.62153        0.31874
H          1.24133        3.87102        1.27519
H          2.75901       -0.03374        3.95167
H          2.83698        1.24641        5.18628
H          4.35177        0.55284        4.52595
H          0.71380        2.22056        4.33768
H          0.62443        0.93611        3.10806
H         -0.05468        2.55576        2.75415
