32
4-ETHYLOCTANE.gamout	Energy:    -394.0177873
C          5.32976        3.40952        1.24744
C          3.97979        3.95861        1.78033
C          2.89992        2.84837        1.72200
C          3.59892        5.25387        1.01421
C          6.04057        2.39114        2.15217
C          1.61778        3.03147        2.55260
C          2.62948        6.21923        1.71135
C          7.37991        1.88970        1.58822
C          0.70543        1.79898        2.50391
C          8.09920        0.89542        2.50781
H          6.02327        4.26459        1.07856
H          5.16478        2.96101        0.23900
H          4.13619        4.23490        2.85205
H          3.36645        1.89058        2.04570
H          2.62383        2.68866        0.65244
H          4.53969        5.81228        0.80747
H          3.20011        4.97463        0.01130
H          5.38344        1.51135        2.33971
H          6.21227        2.85167        3.15331
H          1.04714        3.91658        2.19933
H          1.89233        3.25210        3.60950
H          2.50337        7.14914        1.11756
H          1.61904        5.78803        1.85671
H          3.00840        6.51732        2.71278
H          8.04505        2.76065        1.38650
H          7.20222        1.41779        0.59456
H         -0.21492        1.93977        3.10830
H          0.38815        1.57256        1.46307
H          1.22368        0.89517        2.89158
H          8.33603        1.35326        3.49231
H          7.47117        0.00009        2.70594
H          9.05363        0.54108        2.06578
