29
4-ETHYL-2-METHYLHEXANE.gamout	Energy:    -354.7374186
C          2.37186        3.61252        2.55132
C          2.26860        3.32743        4.06951
C          1.02885        4.05042        4.65059
C          2.31614        1.81507        4.41061
C          3.59965        3.04692        1.80063
C          0.88525        3.98802        6.17683
C          1.17799        0.95828        3.83703
C          4.93057        3.57630        2.36344
C          3.48773        3.35097        0.29578
H          2.35724        4.71832        2.40286
H          1.44839        3.23773        2.05243
H          3.15887        3.78713        4.56093
H          0.10666        3.64646        4.17316
H          1.08013        5.11756        4.33709
H          2.33251        1.69881        5.51705
H          3.28974        1.40431        4.06322
H          3.59798        1.93728        1.91443
H          0.70911        2.95448        6.54194
H          0.03063        4.60535        6.52449
H          1.79699        4.36827        6.68680
H          1.14446        0.99103        2.72756
H          0.18234        1.28310        4.20633
H          1.30110       -0.10635        4.12685
H          5.08421        3.29585        3.42620
H          4.97256        4.68651        2.30234
H          5.79524        3.17923        1.79053
H          3.49013        4.44765        0.10881
H          4.33579        2.91487       -0.27365
H          2.54873        2.94238       -0.13429
