19
4-ETHYLCYCLOPENTENE.gamout	Energy:    -273.7440047
C          1.04874       -0.71496        0.45001
C          1.09044        0.63311        0.44340
C         -0.12652        1.23002       -0.22980
C         -1.10845        0.02221       -0.35589
C         -0.20219       -1.24044       -0.21847
C         -1.99697        0.02790       -1.60949
C         -2.97064        1.21077       -1.68814
H          1.84090       -1.36801        0.85058
H          1.92103        1.24067        0.83761
H         -0.56201        2.08215        0.33686
H          0.14720        1.64016       -1.23350
H         -1.77296        0.04812        0.53866
H          0.04322       -1.67575       -1.21837
H         -0.69480       -2.05694        0.35465
H         -2.57288       -0.92468       -1.64426
H         -1.34254        0.01964       -2.51236
H         -3.65458        1.23075       -0.81206
H         -3.60094        1.15959       -2.60039
H         -2.43670        2.18445       -1.71027
