17
4-ETHYLPYRIDINE.gamout	Energy:    -326.6726401
C          6.75095       -0.00420        0.24102
C          5.67209        0.14615       -0.85020
C          4.38501       -0.57876       -0.51268
C          3.33869        0.05163        0.19294
C          4.18823       -1.93324       -0.85568
C          2.18122       -0.67927        0.51294
N          1.99627       -1.97059        0.18554
C          2.99238       -2.57378       -0.48778
H          7.67888        0.53448       -0.04269
H          6.40244        0.40450        1.21204
H          7.01230       -1.07056        0.40360
H          6.06576       -0.24297       -1.81402
H          5.45542        1.22479       -1.00807
H          3.42094        1.11103        0.48813
H          4.96184       -2.48728       -1.41325
H          1.35532       -0.18988        1.06257
H          2.83039       -3.63450       -0.75661
