29
4-ETHYLHEPTANE.gamout	Energy:    -354.7376762
C          4.17792        1.39083        3.22708
C          4.21988        2.43220        4.37010
C          3.33432        2.00516        5.56729
C          5.65913        2.79183        4.82394
C          4.91004        1.79070        1.93515
C          1.81765        2.03526        5.31223
C          6.49122        1.63522        5.39697
C          4.72422        0.77956        0.79722
C          0.98646        1.67735        6.55003
H          4.58124        0.41922        3.59599
H          3.11358        1.18665        2.97313
H          3.77768        3.37542        3.96749
H          3.62721        0.98247        5.90047
H          3.55804        2.67554        6.42933
H          5.58537        3.59938        5.58673
H          6.20600        3.24655        3.96881
H          5.99714        1.91703        2.13611
H          4.54749        2.79303        1.61054
H          1.53097        3.05052        4.95320
H          1.55674        1.34056        4.48303
H          6.00550        1.17392        6.28232
H          7.49254        1.98791        5.72128
H          6.65469        0.82884        4.65147
H          3.65192        0.65685        0.53175
H          5.10780       -0.22412        1.08100
H          5.26045        1.09141       -0.12343
H         -0.10286        1.71439        6.33951
H          1.18733        2.37752        7.38948
H          1.21884        0.65381        6.91565
