24
4-ETHYL-CIS-2-HEXENE.gamout	Energy:    -314.2293766
C          1.52665        0.79128        1.20643
C          2.56045        0.19396        0.29106
C          2.81851       -1.11563        0.07395
C          2.15496       -2.32317        0.69891
C          1.56434       -3.25323       -0.39096
C          0.44928       -2.62002       -1.23230
C          3.17479       -3.06638        1.60688
C          2.59032       -4.20299        2.45807
H          0.82370        1.44592        0.64479
H          2.00214        1.44008        1.97548
H          0.92521        0.02590        1.73545
H          3.17996        0.92611       -0.26064
H          3.63067       -1.35779       -0.63990
H          1.31488       -1.98503        1.34860
H          1.17383       -4.17506        0.09257
H          2.39452       -3.58579       -1.05715
H         -0.41492       -2.32177       -0.60020
H          0.07119       -3.32981       -1.99741
H          0.80006       -1.70859       -1.76050
H          3.64349       -2.31546        2.27967
H          4.00033       -3.45853        0.96905
H          1.75302       -3.84109        3.09328
H          3.36027       -4.62752        3.13542
H          2.20134       -5.04053        1.84245
