24
4-ETHYL-1-HEXENE.gamout	Energy:    -314.2211424
C          1.73396        0.54764        0.73590
C          1.12074        1.93795        0.94392
C          1.80617        2.80848        2.02527
C          3.24322        3.23397        1.58401
C          0.90155        4.01218        2.37662
C          4.26395        3.29069        2.69343
C          5.39552        2.56269        2.74196
C          1.39635        4.93948        3.49349
H          2.79987        0.59796        0.42850
H          1.19358       -0.01507       -0.05352
H          1.68933       -0.05777        1.66668
H          1.11816        2.49954       -0.01945
H          0.04924        1.81694        1.22017
H          1.90500        2.17672        2.94056
H          3.61784        2.53498        0.80561
H          3.17498        4.23078        1.08651
H         -0.10044        3.61729        2.65919
H          0.73292        4.60957        1.44977
H          4.04519        3.97688        3.53208
H          6.10007        2.64598        3.58530
H          5.66179        1.85697        1.93525
H          1.59282        4.37843        4.43238
H          0.64103        5.71890        3.72718
H          2.33164        5.47110        3.21984
