14
4-HYDROXYBENZONITRILE.gamout	Energy:    -399.4237828
O          3.22466        0.03519       -0.00039
N         -3.57251        0.01022        0.00006
C          1.86758       -0.01843        0.00018
C         -0.96177       -0.00311       -0.00004
C          1.14876       -1.23535        0.00018
C          1.16431        1.20784        0.00011
C         -0.25026       -1.22832        0.00001
C         -0.23217        1.21442        0.00005
C         -2.39668        0.00463       -0.00023
H          1.69225       -2.19526        0.00010
H          1.73613        2.14758        0.00002
H         -0.80391       -2.17902       -0.00006
H         -0.77523        2.17127       -0.00003
H          3.58095       -0.87445       -0.00041
