17
4-HYDROXYBENZYL_ALCOHOL.gamout	Energy:    -421.6895467
O         -3.20673       -0.69461        0.47311
O          3.20592       -0.08065        0.11815
C         -0.98297        0.15684       -0.17142
C         -0.36508       -1.07558        0.12259
C         -0.15822        1.28866       -0.35162
C         -2.49409        0.24226       -0.32210
C          1.03081       -1.18058        0.22711
C          1.23693        1.19875       -0.25492
C          1.84330       -0.04293        0.03305
H         -1.00027       -1.96201        0.27910
H         -0.61888        2.26754       -0.56847
H         -2.82336        1.29564       -0.13292
H         -2.78547        0.01587       -1.37269
H          1.49711       -2.15415        0.45917
H          1.88025        2.08134       -0.39178
H         -2.92801       -0.54671        1.39796
H          3.47893       -0.99647        0.31770
