31
4-ISOPROPYL_DIPHENYL.gamout	Energy:    -580.8157009
C          3.23620        3.34707        3.33395
C          3.57145        3.82299        2.04279
C          2.57449        4.15239        1.11105
C          1.86322        3.21373        3.65586
C          4.29330        3.00063        4.32278
C          0.86585        3.54411        2.72497
C          1.21628        4.01512        1.44747
C          4.12955        3.28140        5.70140
C          5.12557        2.95903        6.63342
C          5.50069        2.38069        3.92423
C          6.49432        2.06058        4.86155
C          6.33243        2.34110        6.23490
C          7.42619        1.99249        7.24098
C          6.93933        0.98326        8.30163
C          8.02143        3.25528        7.89883
H          4.63112        3.96194        1.77600
H          2.86168        4.52907        0.11632
H          1.57619        2.82044        4.64389
H         -0.19498        3.42398        2.99727
H          0.43371        4.27423        0.71698
H          3.21312        3.78811        6.04366
H          4.96038        3.20641        7.69505
H          5.65385        2.12142        2.86452
H          7.42128        1.56953        4.52012
H          8.24280        1.50044        6.66536
H          7.76929        0.69342        8.98059
H          6.54396        0.05973        7.83067
H          6.12979        1.40978        8.93197
H          8.41013        3.96454        7.13920
H          8.85818        2.99140        8.58017
H          7.25966        3.79547        8.50100
