32
4-ISOPROPYLHEPTANE.gamout	Energy:    -394.0145908
C          4.16434        3.47910        1.75164
C          4.45770        2.07950        1.15184
C          2.79354        4.01711        1.24286
C          5.33561        4.47931        1.48981
C          3.53028        0.93842        1.61540
C          1.86439        4.57533        2.33586
C          5.03686        5.89626        2.01644
C          6.67776        4.00226        2.07786
C          3.69703        0.53149        3.08577
C          0.53565        5.11901        1.79862
H          4.09317        3.36866        2.86089
H          4.40514        2.16268        0.04140
H          5.50399        1.78508        1.38132
H          2.96172        4.79966        0.46752
H          2.24810        3.20519        0.71201
H          5.45259        4.55139        0.38081
H          2.46782        1.21129        1.42320
H          3.72389        0.05067        0.97323
H          2.39258        5.37454        2.90123
H          1.66567        3.77013        3.07964
H          4.12420        6.33646        1.56699
H          5.87710        6.58571        1.78876
H          4.90371        5.89351        3.12074
H          7.46726        4.76792        1.92565
H          7.04538        3.06189        1.62089
H          6.59085        3.83152        3.17374
H          3.44755        1.35865        3.78354
H          3.03747       -0.32277        3.34594
H          4.74210        0.22161        3.30349
H         -0.03559        4.33618        1.25438
H         -0.11366        5.49498        2.61688
H          0.69649        5.95871        1.08862
