24
4-METHYL-3-ETHYL-CIS-2-PENTENE.gamout	Energy:    -314.2295086
C          0.85469       29.77222       -0.43709
C          1.09165       30.80957        0.67827
C          0.95466       32.26232        0.22357
C          2.00783       32.85816       -0.39320
C         -0.36503       32.97769        0.51223
C          2.12354       34.24792       -0.95493
C         -1.60121       32.21938       -0.01558
C         -0.51420       33.28176        2.02082
H          0.97921       28.73641       -0.05541
H         -0.16465       29.85173       -0.86687
H          1.57533       29.91672       -1.26889
H          2.11177       30.65599        1.09322
H          0.39416       30.60532        1.52029
H          2.92360       32.24363       -0.50555
H         -0.33763       33.95713       -0.01235
H          1.19304       34.84301       -0.86523
H          2.93360       34.81881       -0.44757
H          2.40045       34.22103       -2.03271
H         -2.52510       32.80793        0.16865
H         -1.53138       32.03169       -1.10687
H         -1.73282       31.24015        0.49209
H         -1.44728       33.85176        2.21861
H          0.33976       33.87981        2.39983
H         -0.56434       32.34897        2.62286
