24
4-METHYL-CIS-3-HEPTENE.gamout	Energy:    -314.2339860
C          0.65981        0.01592        1.18671
C          1.76366       -0.16022        0.12622
C          2.73295       -1.26413        0.46661
C          4.07349       -1.18118        0.66266
C          4.86859        0.10686        0.53255
C          5.58744        0.26650       -0.82749
C          6.43541        1.54045       -0.91839
C          4.87875       -2.41247        1.01469
H         -0.07260        0.79520        0.88784
H          1.08901        0.30951        2.16764
H          0.09611       -0.92874        1.34333
H          2.29656        0.80242       -0.02508
H          1.28137       -0.39576       -0.85164
H          2.27183       -2.26508        0.58215
H          5.63373        0.14242        1.34281
H          4.21224        0.98888        0.69376
H          4.82293        0.26178       -1.63596
H          6.23095       -0.62214       -1.01359
H          5.81676        2.45175       -0.77026
H          6.93046        1.63215       -1.90767
H          7.23323        1.55649       -0.14476
H          4.25000       -3.32494        1.04925
H          5.37157       -2.29763        2.00679
H          5.69794       -2.59412        0.28316
