24
4-METHYL-TRANS-2-HEPTENE.gamout	Energy:    -314.2330372
C          0.46434        1.88313        1.66277
C          1.98632        1.93211        1.47983
C          2.76709        1.52211        2.73692
C          4.30956        1.56409        2.58933
C          4.81008        2.95896        2.28572
C          4.99280        1.00634        3.85643
C          5.51480        3.32291        1.19391
C          6.03057        4.70512        0.90406
H         -0.06922        2.18435        0.73709
H          0.11811        0.86135        1.92962
H          0.13192        2.56463        2.47529
H          2.28234        1.26903        0.63465
H          2.29590        2.95657        1.17589
H          2.47152        2.17766        3.59035
H          2.47105        0.49021        3.03593
H          4.58631        0.90944        1.72994
H          4.58518        3.72822        3.05326
H          6.09666        0.99563        3.74735
H          4.65661       -0.03067        4.07066
H          4.74894        1.62620        4.74661
H          5.73584        2.54690        0.43462
H          7.13794        4.71130        0.79230
H          5.62280        5.09713       -0.05435
H          5.76430        5.42240        1.70748
