14
4-METHYLPYRIDINE.gamout	Energy:    -287.3903623
C          5.60658        0.45501       -0.33029
C          4.36223       -0.39209       -0.19988
C          3.07239        0.18028       -0.21344
C          4.42714       -1.79596       -0.08063
C          1.94478       -0.65279       -0.11582
C          3.23694       -2.53884        0.01117
N          2.00851       -1.99193       -0.00499
H          5.47997        1.44169        0.15994
H          6.48926       -0.04528        0.11661
H          5.84136        0.64787       -1.40016
H          2.94466        1.27245       -0.29733
H          5.40201       -2.31079       -0.05681
H          0.93044       -0.21132       -0.12440
H          3.28013       -3.64020        0.10625
