19
4-METHYLCYCLOHEXENE.gamout	Energy:    -273.7528814
C          0.49614        2.26594        1.64203
C          2.00629        2.11679        1.87025
C          2.77904        3.41914        1.57850
C          2.60105        0.95626        1.04365
C          4.27198        3.29182        1.93138
C          4.11256        0.94110        1.04433
C          4.86341        1.98521        1.45494
H          0.27540        2.53653        0.58600
H         -0.04454        1.32116        1.86322
H          0.06362        3.05920        2.28777
H          2.16960        1.87244        2.94715
H          2.67575        3.66126        0.49529
H          2.32348        4.26940        2.13146
H          2.21302       -0.01669        1.42307
H          2.23182        1.01605       -0.01021
H          4.84577        4.14279        1.49974
H          4.41947        3.38183        3.03492
H          4.61088        0.02079        0.69100
H          5.96451        1.89630        1.45077
