24
4-METHYL-1-HEPTENE.gamout	Energy:    -314.2254255
C          0.81576        1.20926        0.85160
C          2.07279        1.11502        1.72597
C          3.35357        1.55045        0.99657
C          4.65798        1.44601        1.81976
C          5.89013        1.62848        0.88932
C          4.67604        2.43388        2.99883
C          7.22636        1.37081        1.53637
C          8.05983        0.36355        1.21463
H          0.90654        0.57806       -0.05882
H          0.63607        2.25169        0.51094
H         -0.09090        0.87645        1.39825
H          1.92708        1.72975        2.64207
H          2.19794        0.06781        2.08529
H          3.46315        0.93206        0.07574
H          3.23724        2.60064        0.63685
H          4.71359        0.41142        2.23421
H          5.86788        2.67108        0.49035
H          5.77651        0.95632        0.00986
H          3.80240        2.29182        3.66744
H          4.64886        3.48446        2.63353
H          5.58379        2.31870        3.62620
H          7.53516        2.07284        2.33392
H          7.80769       -0.36399        0.42271
H          9.02563        0.22362        1.72722
