26
4-METHYLHEPTANE.gamout	Energy:    -315.4576769
C          5.90307        2.15357        0.90990
C          4.60158        2.01840        1.73334
C          3.37458        2.40674        0.87511
C          4.45179        0.61561        2.34992
C          7.21523        2.01152        1.69900
C          2.06004        2.60267        1.64885
C          8.46465        2.23352        0.83589
C          0.88722        3.03592        0.76000
H          5.90096        3.14765        0.40610
H          5.88580        1.40375        0.08327
H          4.66034        2.75557        2.57104
H          3.22854        1.63653        0.08087
H          3.60764        3.35213        0.33307
H          3.52920        0.52776        2.95934
H          4.40353       -0.16120        1.55498
H          5.30318        0.36193        3.01428
H          7.20877        2.73647        2.54490
H          7.27011        1.00384        2.16693
H          2.22390        3.36497        2.44494
H          1.78734        1.66554        2.18288
H          8.50988        1.50193        0.00101
H          9.39753        2.12496        1.42729
H          8.47076        3.24890        0.38440
H          0.65687        2.27036       -0.01186
H         -0.03688        3.19985        1.35272
H          1.11299        3.98371        0.22545
