18
4-METHYL-TRANS-2-PENTENE.gamout	Energy:    -235.6668125
C          2.10692        1.79844        3.17861
C          2.38007        1.29939        1.77371
C          0.91433        1.89581        3.80149
C          3.11897        2.38309        0.95656
C          1.13540        0.79481        1.02884
C          0.71010        2.41155        5.19942
H          3.00780        2.12782        3.73482
H          3.08674        0.43875        1.87468
H          0.00101        1.57560        3.26647
H          2.46615        3.26766        0.79466
H          3.42503        1.99824       -0.03940
H          4.03515        2.73604        1.47567
H          1.40948        0.40401        0.02703
H          0.62734       -0.02150        1.58263
H          0.39861        1.61290        0.87785
H          0.03097        3.29327        5.21347
H          0.23229        1.64529        5.85014
H          1.66760        2.71108        5.67337
