19
4-METHYL-2-HEXYNE.gamout	Energy:    -273.7041854
C          4.53953        2.73592        1.22412
C          3.27473        1.99294        1.10248
C          2.10553        2.78313        1.75695
C          3.42272        0.55860        1.66235
C          5.58851        3.36129        1.33217
C          0.71612        2.18462        1.50844
C          6.84185        4.10245        1.45724
H          3.04377        1.90769        0.01262
H          2.13746        3.82491        1.37134
H          2.30255        2.85806        2.85006
H          2.50334       -0.03842        1.49264
H          4.26540        0.02996        1.17323
H          3.62490        0.58260        2.75389
H         -0.07475        2.82042        1.95759
H          0.60958        1.17122        1.94763
H          0.49716        2.10211        0.42174
H          7.52189        3.63249        2.20034
H          6.66561        5.14938        1.78645
H          7.38851        4.14733        0.49047
