16
4-METHYL-1,2-PENTADIENE.gamout	Energy:    -234.4213945
C          0.93066        0.55331       -0.28973
C          2.10219       -0.02014       -0.09119
C          3.27519       -0.58993        0.11545
C          4.13767       -0.42717        1.36112
C          4.33224       -1.78784        2.06005
C          5.49057        0.21888        1.00130
H          0.84634        1.54390       -0.77203
H         -0.01198        0.06433        0.01564
H          3.68562       -1.25018       -0.67638
H          3.60021        0.25180        2.05938
H          4.84463       -2.51015        1.38790
H          3.36020       -2.23354        2.35454
H          4.95375       -1.68307        2.97487
H          6.05525       -0.41242        0.28094
H          6.12426        0.34406        1.90498
H          5.35298        1.21697        0.53736
