24
4-METHYL-3-ETHYL-TRANS-2-PENTENE.gamout	Energy:    -314.2308804
C          0.54988       29.55701       -0.17768
C          1.57532       30.56010        0.39046
C          1.16516       32.02063        0.18939
C          1.87646       30.25288        1.87468
C          2.00432       32.86807       -0.45814
C         -0.18173       32.46767        0.74722
C          1.81091       34.33646       -0.71834
C         -1.30271       32.57656       -0.30629
H          0.36047       29.73349       -1.25678
H          0.91632       28.51453       -0.06397
H         -0.42439       29.61891        0.35333
H          2.52542       30.41734       -0.17261
H          2.65664       30.93203        2.27577
H          2.23427       29.20836        1.99787
H          0.97091       30.36501        2.50957
H          2.95093       32.44087       -0.84248
H         -0.50385       31.76186        1.54348
H         -0.06799       33.45138        1.25371
H          0.90647       34.75073       -0.23011
H          2.68641       34.92342       -0.36135
H          1.72661       34.54851       -1.80835
H         -2.25868       32.89779        0.15943
H         -1.04702       33.31345       -1.09551
H         -1.48521       31.60617       -0.81171
