19
4-METHYLTHIACYCLOHEXANE.gamout	Energy:    -633.7995947
C          0.62066        0.95451        0.86128
C          1.05687       -0.26354        1.69638
C          2.33396       -0.94251        1.14037
C         -0.08825       -1.28967        1.88970
C          2.13785       -1.66636       -0.19829
C         -0.48602       -2.04555        0.61485
S          0.90056       -3.02362       -0.09608
H          1.43804        1.70279        0.78629
H          0.33091        0.68233       -0.17530
H         -0.25382        1.46091        1.32205
H          1.31778        0.11398        2.71086
H          3.13725       -0.17974        1.02384
H          2.70047       -1.68267        1.88556
H         -0.98600       -0.76676        2.29238
H          0.21698       -2.03538        2.65669
H          3.07804       -2.15665       -0.52577
H          1.84500       -0.96224       -1.00818
H         -1.28367       -2.78806        0.82579
H         -0.88518       -1.35815       -0.16266
