27
4-METHYL-3-HEPTANOL.gamout	Energy:    -390.6184912
C          1.87751        1.65233        4.20716
C          2.09697        2.39907        2.85934
C          3.50277        2.14825        2.26890
C          0.97933        2.03802        1.86261
C          2.70336        2.20389        5.37692
O          2.17790        0.25690        4.10274
C          3.91619        3.10176        1.13567
C          2.35639        1.55685        6.72346
C          5.30056        2.78295        0.55618
H          0.79623        1.78434        4.47937
H          2.00530        3.48751        3.08770
H          3.56122        1.09375        1.91686
H          4.25990        2.22325        3.08046
H          0.98301        0.94825        1.63291
H          1.09317        2.56698        0.89488
H         -0.02351        2.29381        2.26580
H          3.78350        2.04938        5.16065
H          2.54503        3.30381        5.42531
H          1.55358       -0.13126        3.46172
H          3.90322        4.14841        1.51782
H          3.16360        3.07456        0.31618
H          2.98121        1.96774        7.54318
H          2.51679        0.46102        6.68131
H          1.29210        1.73079        6.99244
H          6.08816        2.83083        1.33868
H          5.58471        3.49347       -0.24774
H          5.33004        1.75955        0.12434
