32
4-METHYL-3-ETHYLHEPTANE.gamout	Energy:    -394.0126494
C          0.22114       29.66283        0.74203
C          1.42234       30.56462        0.42995
C          1.01781       32.00718        0.08690
C          2.15673       33.03723       -0.11042
C          3.13527       32.76218       -1.30393
C          1.55782       34.45522       -0.20476
C          4.22625       31.69284       -0.98315
C          2.38916       32.46897       -2.62660
C          5.66229       32.14515       -1.28957
C          3.26139       32.49803       -3.88852
H          0.53811       28.62756        0.98699
H         -0.36201       30.04613        1.60732
H         -0.47829       29.59937       -0.11983
H          2.00357       30.12003       -0.40697
H          2.11153       30.57557        1.30526
H          0.36859       32.38782        0.90892
H          0.36598       32.00164       -0.81697
H          2.78154       33.01502        0.81418
H          3.67787       33.72646       -1.45345
H          2.35205       35.22836       -0.27257
H          0.93698       34.68964        0.68586
H          0.90299       34.57028       -1.09546
H          4.17055       31.41929        0.09264
H          4.01128       30.75184       -1.53820
H          1.89254       31.47491       -2.55237
H          1.56767       33.20996       -2.74867
H          6.40115       31.35144       -1.04888
H          5.79548       32.41033       -2.35936
H          5.93531       33.04259       -0.69353
H          2.65142       32.32753       -4.80057
H          3.77062       33.47875       -4.00983
H          4.04997       31.71630       -3.87551
