18
4-METHYL-CIS-2-PENTENE.gamout	Energy:    -235.6656065
C          3.10485        1.97670        1.16132
C          3.45782        2.80394        2.37839
C          2.01091        1.20865        0.95813
C          4.77875        2.31080        3.00936
C          3.55233        4.30031        2.00842
C          0.85681        0.97970        1.89562
H          3.85259        2.02228        0.34480
H          2.65467        2.69077        3.14010
H          1.94235        0.67888       -0.01072
H          5.61960        2.39329        2.28646
H          5.04399        2.91622        3.90202
H          4.70832        1.24855        3.32177
H          3.81211        4.91757        2.89477
H          2.59386        4.67743        1.59565
H          4.33819        4.47066        1.24049
H          0.96206        1.52636        2.85350
H          0.74217       -0.10139        2.13326
H         -0.10394        1.29443        1.43040
