20
4-METHYL_CYCLOHEXANONE.gamout	Energy:    -348.9400944
C          0.89922       -0.05390        0.11922
C          2.43494       -0.08279        0.01610
C          2.98720        0.96098       -0.98353
C          2.98611       -1.48383       -0.33864
C          2.70476        0.59780       -2.45954
C          3.14451       -0.82557       -2.80430
O          3.79540       -1.08877       -3.80499
C          2.70427       -1.89344       -1.80264
H          0.53720        0.95368        0.41305
H          0.53509       -0.77526        0.88080
H          0.39998       -0.31187       -0.83939
H          2.83399        0.18346        1.02093
H          4.08763        1.04599       -0.84190
H          2.56883        1.96651       -0.75926
H          2.56666       -2.24836        0.35111
H          4.08638       -1.48886       -0.17225
H          3.20372        1.29286       -3.16442
H          1.60926        0.66096       -2.65625
H          1.60865       -2.04338       -1.94288
H          3.20178       -2.84618       -2.07422
