21
4-METHYL-CIS-2-HEXENE.gamout	Energy:    -274.9458529
C          3.65080        2.63639        1.42431
C          4.96182        2.28076        0.68996
C          3.12987        1.44161        2.19449
C          3.80335        3.89605        2.32711
C          1.92222        0.84255        2.08250
C          0.78536        1.20953        1.16794
C          4.81383        3.79321        3.47828
H          2.90092        2.90628        0.64836
H          5.74841        1.93799        1.39576
H          4.79842        1.46193       -0.04055
H          5.36378        3.15745        0.13807
H          3.83584        1.01155        2.93023
H          2.80200        4.14631        2.74179
H          4.08487        4.75179        1.67147
H          1.73170       -0.02860        2.73802
H          1.01966        2.06235        0.50017
H          0.49467        0.34611        0.52909
H         -0.12432        1.47740        1.75061
H          4.84678        4.74140        4.05421
H          4.55108        2.98610        4.19409
H          5.84413        3.59700        3.11421
