23
4-PROPOXYPHENOL.gamout	Energy:    -500.2544278
O          1.32290        0.68669       -0.16661
O         -4.12435       -0.44684        0.12932
C          3.69185        0.33774       -0.23558
C          2.32179       -0.32660       -0.12587
C          0.00713        0.31408       -0.08565
C          4.83943       -0.67918       -0.20917
C         -0.94400        1.36084       -0.13700
C         -0.44694       -1.01475        0.04123
C         -2.31282        1.08952       -0.06426
C         -1.82867       -1.28392        0.11441
C         -2.77147       -0.24149        0.06282
H          3.71934        0.93030       -1.17572
H          3.79713        1.06622        0.59727
H          2.17234       -1.05186       -0.96381
H          2.24527       -0.90976        0.82498
H          4.76510       -1.40043       -1.05077
H          5.82338       -0.17453       -0.29115
H          4.84518       -1.26642        0.73396
H         -0.57665        2.39371       -0.23736
H          0.25917       -1.85590        0.08442
H         -3.05386        1.90242       -0.10473
H         -2.16975       -2.32906        0.21434
H         -4.28633       -1.40539        0.21311
