32
4-PROPYLHEPTANE.gamout	Energy:    -394.0210337
C          4.11416        3.12626        2.29715
C          3.88448        4.52693        1.67950
C          5.09375        5.45957        1.93269
C          2.56679        5.15704        2.19272
C          3.22719        2.00472        1.73189
C          6.33760        5.16616        1.07801
C          2.00381        6.29942        1.33066
C          3.47093        0.64241        2.39182
C          7.51833        6.09789        1.37710
C          0.71490        6.90995        1.89376
H          3.96813        3.19686        3.40128
H          5.17840        2.82983        2.15897
H          3.78671        4.39737        0.57380
H          5.36131        5.40725        3.01469
H          4.79038        6.51567        1.75330
H          2.72900        5.52403        3.23399
H          1.78774        4.36618        2.27642
H          3.40389        1.92588        0.63469
H          2.15375        2.27900        1.84087
H          6.06155        5.24777        0.00173
H          6.65696        4.10973        1.22360
H          2.77102        7.09796        1.21725
H          1.81681        5.91714        0.30106
H          2.82538       -0.14793        1.95498
H          4.52606        0.31452        2.27140
H          3.26216        0.67605        3.48299
H          7.24865        7.16247        1.20605
H          7.84693        6.01010        2.43510
H          8.39544        5.86965        0.73631
H          0.32861        7.72456        1.24608
H         -0.08899        6.14806        1.98517
H          0.87606        7.33864        2.90640
