24
5,5-DIMETHYL-CIS-2-HEXENE.gamout	Energy:    -314.2304534
C          3.15495        2.64001        2.96787
C          2.09279        1.95789        2.04039
C          4.47815        1.93027        3.09493
C          1.77805        0.52801        2.53312
C          0.80268        2.80453        2.08775
C          2.61624        1.90175        0.58982
C          5.69352        2.35691        2.67988
C          6.03789        3.64273        1.98124
H          2.70192        2.72335        3.98399
H          3.30571        3.68219        2.61223
H          4.44662        0.94848        3.60211
H          0.97407        0.06723        1.92038
H          2.66575       -0.13457        2.46652
H          1.43348        0.52985        3.58985
H          0.39294        2.86337        3.11914
H          0.98902        3.84341        1.74048
H          0.01451        2.36869        1.43746
H          1.87363        1.42280       -0.08364
H          2.81952        2.92024        0.19459
H          3.56090        1.32237        0.52416
H          6.55204        1.68812        2.88053
H          6.51896        3.44506        0.99740
H          5.15848        4.29166        1.79830
H          6.77647        4.23107        2.57037
