24
5,5-DIMETHYL-TRANS-2-HEXENE.gamout	Energy:    -314.2325487
C         -0.03362       21.04974       -0.02217
C          1.51002       21.00981       -0.05848
C          2.02666       22.45335       -0.37382
C          2.04398       20.54865        1.31332
C          1.96002       20.01647       -1.15270
C          3.52031       22.61571       -0.48495
C          4.28707       23.35900        0.34064
C          5.77545       23.53818        0.22900
H         -0.45368       20.04935        0.21703
H         -0.45230       21.36558       -1.00166
H         -0.40213       21.76187        0.74722
H          1.55514       22.77755       -1.33200
H          1.64153       23.14044        0.41261
H          3.15356       20.52856        1.32914
H          1.67923       19.52894        1.56202
H          1.70959       21.23113        2.12428
H          1.53624       19.00669       -0.96472
H          1.61871       20.34083       -2.15951
H          3.06439       19.90979       -1.18586
H          4.01730       22.08806       -1.32237
H          3.78986       23.89321        1.17453
H          6.19585       22.97086       -0.62696
H          6.04749       24.60914        0.09548
H          6.29603       23.19918        1.15244
