21
5-ETHYLIDENE-2-NORBORNENE.gamout	Energy:    -349.8656601
C         -1.55270        1.01012       -0.16286
C         -1.23350       -1.11845       -0.87093
C         -1.21004        0.30178       -1.50126
C         -0.36719        0.50029        0.73871
C         -0.19540       -0.93805        0.25031
C         -2.78033        0.20579        0.26203
C         -2.58739       -1.06911       -0.15099
C          0.68745       -1.85839        0.69135
C          1.67687       -1.63321        1.81062
H         -1.66611        2.11128       -0.18675
H         -1.05892       -1.98624       -1.53498
H         -0.21775        0.58426       -1.91411
H         -1.99417        0.43864       -2.27374
H         -0.59940        0.56947        1.82308
H          0.55573        1.09696        0.56114
H         -3.59082        0.58315        0.90387
H         -3.19844       -1.95217        0.08934
H          0.68491       -2.85076        0.20440
H          2.29322       -2.53422        2.00186
H          1.17054       -1.37136        2.76667
H          2.37908       -0.79800        1.58943
