12
5-FLUOROURACIL.gamout	Energy:    -513.6860706
F         -2.46748       -0.86586       -0.00009
O         -1.57907        1.80191        0.00032
O          2.82014        0.35777        0.00012
N          0.60559        1.04550        0.00019
N          1.13364       -1.22049       -0.00010
C         -0.79928        0.86044        0.00019
C          1.62863        0.09076        0.00009
C         -1.16308       -0.56881       -0.00001
C         -0.21065       -1.54505       -0.00012
H          0.92011        2.02223        0.00030
H          1.84617       -1.95326       -0.00018
H         -0.47626       -2.61199       -0.00030
