22
5-METHYL-2-HEXANONE.gamout	Energy:    -350.1407906
C          1.93693        2.28138        1.79348
C          3.26883        2.91053        1.36929
C          1.87351        1.74250        3.24232
C          4.41821        1.91492        1.18897
C          2.09699        2.83875        4.29881
C          0.53609        1.02094        3.48067
C          5.80627        2.51475        0.99510
O          4.23685        0.70541        1.19004
H          1.12516        3.03121        1.65292
H          1.71618        1.44275        1.09845
H          3.15508        3.42306        0.38437
H          3.59359        3.72030        2.06081
H          2.68551        0.98825        3.34919
H          2.03453        2.42059        5.32568
H          1.32831        3.63974        4.21983
H          3.09304        3.32126        4.20923
H          0.49064        0.57581        4.49687
H          0.38095        0.20157        2.74746
H         -0.32194        1.72254        3.38459
H          6.52360        1.72362        0.70761
H          5.79620        3.31958        0.22993
H          6.14259        2.98719        1.94378
