14
5-METHYLFURFURAL.gamout	Energy:    -382.3977650
O          1.08634        1.08467        1.34003
O         -0.93337        2.33792        2.93598
C          1.76844        0.24658        0.51253
C          0.93847       -0.78589        0.09337
C         -0.19573        0.60144        1.46385
C         -0.32790       -0.55728        0.70640
C          3.19299        0.58132        0.23346
C         -1.15489        1.31416        2.30316
H          1.21850       -1.60690       -0.57718
H         -1.23813       -1.16234        0.61302
H          3.63633       -0.16969       -0.44707
H          3.28395        1.58217       -0.23993
H          3.79081        0.60462        1.16938
H         -2.16843        0.80660        2.31328
