21
5-METHYL-1-HEXENE.gamout	Energy:    -274.9438736
C          3.39371        2.42324        2.34051
C          2.08565        2.16082        1.55972
C          3.48091        3.79627        3.04140
C          2.20437        0.86428        0.73878
C          0.84786        2.11584        2.47297
C          4.78987        4.00903        3.75606
C          5.68392        4.97932        3.49119
H          3.53067        1.61209        3.09415
H          4.25400        2.33442        1.63989
H          1.94985        3.00558        0.84300
H          2.65213        3.88338        3.78188
H          3.32499        4.60886        2.29701
H          2.34805       -0.01622        1.40275
H          3.06860        0.90111        0.04253
H          1.29148        0.67907        0.13418
H          0.69129        3.06701        3.02274
H          0.94216        1.30287        3.22627
H         -0.07553        1.92100        1.88758
H          5.02175        3.28100        4.55871
H          6.62699        5.06568        4.05484
H          5.50400        5.72860        2.70029
