32
5-METHYLNONANE.gamout	Energy:    -394.0186440
C          5.42865        3.05118        2.14610
C          4.74322        1.83171        1.47669
C          3.54621        2.19666        0.56754
C          5.74710        0.94713        0.71441
C          6.05211        4.09324        1.20223
C          2.40192        2.99974        1.21730
C          6.67567        5.30563        1.92355
C          1.70120        2.33681        2.42007
C          7.90807        4.98441        2.78059
C          1.01553        1.00090        2.10462
H          4.69264        3.56658        2.80509
H          6.21056        2.65896        2.83414
H          4.34630        1.21128        2.31468
H          3.13750        1.25088        0.14471
H          3.91854        2.76386       -0.31612
H          6.61095        0.66937        1.35469
H          6.14960        1.45853       -0.18659
H          5.26925        0.00700        0.36624
H          6.83389        3.61656        0.56740
H          5.27789        4.46584        0.49579
H          1.63850        3.20841        0.43314
H          2.77853        3.99909        1.53074
H          5.89793        5.79065        2.55754
H          6.95545        6.06648        1.16094
H          0.94336        3.05058        2.81380
H          2.42874        2.19606        3.25091
H          8.34228        5.90445        3.22497
H          8.70568        4.50187        2.17472
H          7.67040        4.29793        3.61982
H          1.74225        0.21899        1.79822
H          0.28161        1.10989        1.27701
H          0.46688        0.60748        2.98578
