24
5-METHYL-TRANS-2-HEPTENE.gamout	Energy:    -314.2297186
C          0.99956       -0.03365        0.27434
C          2.46675        0.03008       -0.04327
C          3.19611       -0.96143       -0.59760
C          4.67620       -0.91244       -0.87285
C          5.14384       -1.28971       -2.30508
C          4.69488       -0.28483       -3.39526
C          3.23614       -0.40307       -3.85736
C          6.67585       -1.44569       -2.31649
H          0.43164        0.76159       -0.25883
H          0.80896        0.12816        1.35906
H          0.55765       -1.01256       -0.00459
H          2.98213        0.97886        0.20625
H          2.68537       -1.91377       -0.84616
H          5.17853       -1.62001       -0.17004
H          5.06838        0.09905       -0.61780
H          4.70064       -2.28349       -2.55784
H          5.35511       -0.41966       -4.28170
H          4.89421        0.74983       -3.03105
H          3.02127       -1.42048       -4.25016
H          3.01550        0.31729       -4.67340
H          2.52075       -0.20491       -3.03441
H          7.17544       -0.47749       -2.09099
H          7.04320       -1.78463       -3.30769
H          7.02079       -2.18085       -1.55894
