27
5-METHYL-3-HEPTANOL.gamout	Energy:    -390.6125747
C          3.49165        3.62627        3.01124
C          2.51008        2.79567        2.14051
C          4.79937        2.98767        3.53684
C          2.10569        1.46550        2.81968
C          2.97228        2.60058        0.68254
C          5.87903        2.63673        2.49791
O          5.43003        3.89043        4.45577
C          0.94177        0.72335        2.14808
C          6.40019        3.82108        1.67379
H          2.92544        3.93399        3.92326
H          3.74394        4.57516        2.48802
H          1.58480        3.41787        2.08988
H          4.53337        2.03730        4.06569
H          1.83420        1.67730        3.87910
H          2.98992        0.78967        2.86593
H          3.30661        3.55940        0.23537
H          2.14688        2.21512        0.04939
H          3.81163        1.87891        0.60272
H          5.49605        1.83222        1.83551
H          6.72468        2.19242        3.06738
H          4.74835        4.18367        5.08905
H          0.66233       -0.18440        2.72207
H          0.03698        1.36571        2.07944
H          1.19388        0.39462        1.11867
H          6.74019        4.63512        2.34490
H          5.62365        4.23981        1.00072
H          7.25741        3.51442        1.03971
