24
5-METHYL-CIS-2-HEPTENE.gamout	Energy:    -314.2278756
C          1.05648       -0.35817       -0.48648
C          2.25234        0.22515        0.21455
C          2.80122        1.44943        0.03916
C          2.33258        2.55440       -0.87307
C          3.41834        3.24017       -1.74871
C          3.99886        2.32626       -2.85645
C          5.00264        1.26029       -2.39514
C          2.84249        4.52838       -2.36418
H          1.30909       -1.32761       -0.97058
H          0.64153        0.31101       -1.26618
H          0.23783       -0.57973        0.23468
H          2.72886       -0.43470        0.96384
H          3.68211        1.69939        0.66065
H          1.88296        3.35011       -0.23153
H          1.50940        2.20028       -1.53176
H          4.26003        3.53366       -1.07570
H          4.49890        2.97613       -3.61032
H          3.15311        1.84084       -3.39680
H          5.86476        1.72438       -1.86920
H          5.40967        0.69579       -3.26060
H          4.54490        0.52760       -1.70103
H          2.00611        4.29931       -3.06084
H          3.61159        5.08252       -2.94228
H          2.44667        5.21410       -1.58515
