22
5-METHYLINDAN.gamout	Energy:    -388.0143904
C         -1.71912        1.69289       -0.11446
C         -0.47169        0.83667       -0.05275
H         -1.68953        2.39019       -0.97950
H         -1.82756        2.31929        0.79718
H         -2.63565        1.07727       -0.21082
C         -0.54825       -0.57225       -0.11609
C          0.60803       -1.37618       -0.07023
C          1.86473       -0.76449        0.03978
C          0.80436        1.43995        0.05963
C          1.95821        0.64598        0.10453
C          3.41389        1.06340        0.22590
C          4.17456       -0.19703       -0.26200
H          3.65683        1.28396        1.29232
H          3.65878        1.98025       -0.35052
C          3.24945       -1.38254        0.11762
H          3.37591       -2.27070       -0.53662
H          3.45321       -1.72376        1.16027
H          5.19831       -0.28444        0.15586
H          4.27126       -0.15418       -1.36875
H          0.88372        2.53997        0.10231
H          0.51827       -2.47345       -0.13001
H         -1.53749       -1.05029       -0.21039
