20
6-METHYLQUINOLINE.gamout	Energy:    -440.9256862
C         -3.92685       -5.74969        0.67068
C         -4.87488       -6.91122        0.48053
C         -4.37155       -4.50048        1.09816
C         -2.52812       -5.92229        0.40855
C         -3.47100       -3.40738        1.27660
C         -1.62451       -4.88396        0.57046
C         -2.06389       -3.59672        1.00835
C         -3.88355       -2.11366        1.71276
N         -1.14040       -2.59723        1.15643
C         -2.93483       -1.11171        1.85778
C         -1.57155       -1.41093        1.56420
H         -5.92000       -6.63160        0.71984
H         -4.85287       -7.28109       -0.56730
H         -4.59481       -7.76909        1.12930
H         -5.44306       -4.34024        1.30771
H         -2.16932       -6.90869        0.06974
H         -0.54972       -5.01202        0.37032
H         -4.94886       -1.92730        1.92881
H         -3.21605       -0.10088        2.19230
H         -0.80575       -0.61963        1.67623
