24
6-METHYL-1-HEPTENE.gamout	Energy:    -314.2253515
C          3.48267        1.84865        2.28023
C          4.66215        1.16010        2.98542
C          2.09435        1.22204        2.54504
C          6.04688        1.78782        2.69083
C          1.66490        1.32854        4.01939
C          1.03413        1.85302        1.62551
C          6.50102        1.67257        1.25759
C          7.57336        0.97649        0.83608
H          3.45303        2.92494        2.57600
H          3.65953        1.84113        1.18137
H          4.50438        1.18381        4.08594
H          4.68775        0.08399        2.69828
H          2.16443        0.13783        2.28777
H          6.80738        1.31524        3.34999
H          6.01187        2.86645        2.97521
H          1.60453        2.39302        4.33754
H          2.36885        0.81328        4.70509
H          0.66283        0.87759        4.17828
H          0.03681        1.38642        1.76925
H          0.92574        2.94055        1.83294
H          1.30500        1.74479        0.55382
H          5.89222        2.20414        0.50149
H          8.22093        0.43230        1.54614
H          7.84882        0.92698       -0.22983
