18
8-HYDROXYQUINOLINE.gamout	Energy:    -476.8212357
C         -3.51038       -3.42747        1.27730
C         -2.11106       -3.61985        1.00916
C         -4.40257       -4.52592        1.09615
C         -3.88652       -2.12103        1.71133
C         -1.62178       -4.90098        0.56538
N         -1.16615       -2.64781        1.14570
C         -2.51984       -5.95590        0.39788
O         -0.30116       -5.00795        0.33342
C         -3.90123       -5.75293        0.66629
C         -2.91672       -1.13427        1.84833
C         -1.55831       -1.44507        1.55202
H         -5.47679       -4.39231        1.29797
H         -4.94507       -1.90787        1.93410
H         -2.14554       -6.93347        0.05932
H          0.03634       -4.09258        0.54583
H         -4.59151       -6.60041        0.52686
H         -3.18233       -0.11912        2.18138
H         -0.77628       -0.67122        1.65609
