20
8-METHYLQUINOLINE.gamout	Energy:    -440.9267727
C         -1.61382       -4.90744        0.56230
C         -0.14640       -5.10328        0.28261
C         -2.08402       -3.61829        1.00520
C         -2.54524       -5.93358        0.40824
C         -3.49181       -3.42249        1.27573
N         -1.16739       -2.61363        1.15522
C         -3.93022       -5.74099        0.67404
C         -4.40148       -4.50810        1.10106
C         -3.90031       -2.12756        1.71160
C         -1.59289       -1.42531        1.56265
C         -2.95385       -1.12370        1.85712
H          0.06536       -6.13896       -0.04932
H          0.20711       -4.39818       -0.49816
H          0.46240       -4.88359        1.18395
H         -2.19799       -6.92393        0.07020
H         -4.62786       -6.58259        0.53748
H         -5.47256       -4.35133        1.30916
H         -4.96569       -1.94211        1.92785
H         -0.82445       -0.63624        1.67314
H         -3.23589       -0.11324        2.19165
