24
8-METHOXYPSORALEN.gamout	Energy:    -762.4202886
O          3.57104        1.24876        0.11782
O         -1.06095       -0.15370        0.24064
O          1.43808       -0.94834        0.34734
O         -3.20139       -0.84270        0.30150
C          1.87603        2.78843       -0.06208
C          2.20422        1.40620        0.09133
C         -0.46609        2.19710       -0.01158
C         -0.11279        0.82143        0.14048
C          1.24096        0.37999        0.19820
C          0.53381        3.19169       -0.11396
C          3.15145        3.47423       -0.12936
C         -1.88031        2.49704       -0.05287
C          4.11299        2.50851       -0.01707
C         -2.81995        1.51090        0.04867
C         -2.44857        0.10315        0.20376
C          2.76364       -1.47549        0.41588
H          0.25163        4.24860       -0.23064
H          3.31994        4.55074       -0.24662
H         -2.18650        3.55000       -0.17015
H          5.20805        2.54269       -0.01377
H         -3.89923        1.71838        0.01933
H          2.64318       -2.56842        0.53692
H          3.32272       -1.06745        1.28399
H          3.33578       -1.26802       -0.51277
