30
9,10-DIMETHYLANTHRACENE.gamout	Energy:    -617.7001099
C          2.13351        2.19933        4.65344
C          0.84527        1.98933        5.42175
C          2.12751        2.90171        3.41364
C          3.36563        1.68955        5.15550
C          3.37268        3.12296        2.68381
C          0.90932        3.40641        2.83629
C          4.61088        1.91090        4.42566
C          3.42881        0.93977        6.38314
C          4.60477        2.61325        3.18576
C          3.30961        3.87261        1.45616
C          0.89617        4.10754        1.64442
C          5.82908        1.40626        5.00315
C          4.62232        0.46165        6.89176
C          5.89240        2.82367        2.41657
C          2.11612        4.35087        0.94760
C          5.84225        0.70509        6.19498
H          0.12671        2.81479        5.25917
H          1.01723        1.93728        6.51342
H          0.33346        1.04618        5.12564
H         -0.04306        3.22451        3.35384
H          2.49881        0.73500        6.93149
H          4.23968        4.07715        0.90777
H         -0.05523        4.48276        1.23504
H          6.78148        1.58825        4.48576
H          4.63271       -0.10393        7.83706
H          5.71978        2.87348        1.32486
H          6.61229        1.99965        2.58022
H          6.40291        3.76816        2.71066
H          2.10573        4.91635        0.00223
H          6.79367        0.32998        6.60440
