26
A-PINENE.gamout	Energy:    -390.3615113
C         -3.33200        2.62076        0.88275
C         -2.20257        2.08333       -0.09606
C         -2.91546        0.68722        0.09563
C         -2.08963        2.67875       -1.50339
H         -3.05661        2.71582       -2.04157
H         -1.37546        2.08894       -2.11824
H         -1.69665        3.71764       -1.45354
C         -0.80691        2.11930        0.55363
H         -0.08262        1.53125       -0.05071
H         -0.78576        1.71239        1.58426
H         -0.42694        3.16270        0.60000
C         -4.64133        2.82809        0.12159
C         -4.16084        0.57061       -0.80976
C         -5.03003        1.80546       -0.67990
H         -4.73761       -0.34468       -0.53695
H         -3.86022        0.41576       -1.87328
C         -3.36471        1.18519        1.50204
H         -2.27699       -0.22083        0.02959
H         -2.59277        1.02907        2.27927
H         -4.34555        0.83075        1.87992
H         -3.07707        3.48433        1.53271
H         -5.96642        1.85802       -1.26398
C         -5.42092        4.11600        0.28567
H         -4.92177        4.80719        0.99441
H         -6.44734        3.93374        0.67084
H         -5.53268        4.65694       -0.67892
