22
ACENAPHTHENE.gamout	Energy:    -462.9763058
C          3.29898        3.00859        1.73624
C          4.07964        3.98930        2.40514
C          1.92791        3.37202        1.65000
C          3.83316        1.79498        1.21098
C          3.17034        5.13744        2.82000
C          5.44265        3.76379        2.56266
C          1.73967        4.72741        2.31781
C          1.04663        2.50089        1.01877
C          2.90089        0.92174        0.56798
C          5.23762        1.59315        1.38912
C          6.00613        2.55497        2.04609
C          1.55386        1.27599        0.48200
H          3.19127        5.29053        3.92072
H          3.50462        6.09768        2.37061
H          6.09359        4.49170        3.07364
H          1.32488        5.47325        1.60565
H          1.01258        4.66682        3.15650
H         -0.02664        2.73274        0.92384
H          3.25172       -0.03216        0.14147
H          5.70910        0.67412        1.00463
H          7.08714        2.38186        2.17395
H          0.85066        0.58963       -0.01744
