13
ACETIC_ANHYDRIDE.gamout	Energy:    -381.4524821
O          3.27246        1.62237        1.60028
C          2.02670        2.09712        1.15545
C          4.47768        2.08546        1.04456
C          1.00722        1.94727        2.25908
O          1.83515        2.50759        0.04011
C          5.54832        1.03515        1.21890
O          4.60409        3.17891        0.55726
H          1.27017        2.61889        3.10253
H          0.00457        2.20503        1.87372
H          1.01298        0.91079        2.65249
H          6.52336        1.44381        0.89849
H          5.59796        0.70621        2.27642
H          5.29624        0.14235        0.60982
