15
ACETYLACETONE.gamout	Energy:    -345.5390003
C          2.44559        1.67633        0.95944
C          1.39834        2.34986        1.87130
C          3.65464        1.29236        1.83813
C          0.40657        1.41163        2.53010
O          1.42447        3.55401        2.07324
C          4.72450        2.35716        1.97484
O          3.69376        0.21689        2.41562
H          2.73618        2.40461        0.17743
H          2.04234        0.74894        0.50848
H          0.94633        0.55312        2.98415
H         -0.27742        0.98789        1.76356
H         -0.18321        1.95290        3.29301
H          4.25252        3.33194        2.22277
H          5.24471        2.49439        1.00235
H          5.45959        2.06852        2.74907
