22
ACETAL.gamout	Energy:    -387.2100350
C          5.50097        0.66050        1.95229
C          4.43579        1.73097        1.73373
O          3.20063        1.08636        1.64102
O          4.39051        2.65800        2.81920
C          2.10902        1.93582        1.28476
C          0.85311        1.08611        1.16256
C          5.26343        3.77220        2.70685
C          5.00848        4.71472        3.87465
H          5.52407       -0.04793        1.10022
H          6.50502        1.11861        2.05700
H          5.26398        0.10045        2.87874
H          4.64272        2.31402        0.79011
H          1.97932        2.73117        2.05356
H          2.33448        2.45176        0.31627
H          0.62507        0.58534        2.12561
H         -0.01567        1.71710        0.88365
H          0.97902        0.30166        0.38845
H          5.09723        4.29939        1.73182
H          6.33453        3.44658        2.70826
H          5.19126        4.19983        4.83975
H          5.67890        5.59670        3.81643
H          3.95829        5.07165        3.87048
