19
ACETANILIDE.gamout	Energy:    -439.9500933
C          6.47783        1.87354       -0.66324
C          6.88619        0.57567       -0.30733
C          5.10438        2.15612       -0.76006
C          1.60876       -2.50534        0.46214
C          2.25520       -1.16993        0.09540
C          4.13591        1.17054       -0.50917
C          4.54974       -0.13506       -0.15153
N          3.64379       -1.18377        0.11653
C          5.93330       -0.42049       -0.05360
O          1.58093       -0.18166       -0.18120
H          7.22540        2.65680       -0.86305
H          7.95755        0.33249       -0.22558
H          4.77031        3.16880       -1.03769
H          2.32044       -3.34401        0.59912
H          1.02861       -2.37304        1.39838
H          0.88375       -2.77384       -0.33186
H          3.06256        1.38406       -0.58245
H          4.08054       -2.07418        0.36309
H          6.26224       -1.43636        0.22494
