10
ACETONE.gamout	Energy:    -193.0088604
C         -0.00000        0.00000        0.18627
O          0.00000       -0.00000        1.40762
C         -0.00000        1.29615       -0.61799
C          0.00000       -1.29615       -0.61799
H         -0.00000        2.16238        0.06999
H          0.00000       -2.16238        0.06999
H          0.89125        1.34591       -1.28000
H         -0.89125        1.34591       -1.28000
H         -0.89125       -1.34591       -1.28000
H          0.89125       -1.34591       -1.28000
