17
ACETOPHENONE.gamout	Energy:    -384.6102164
O         -2.34035       -1.37437        0.00000
C         -0.32515       -0.11184       -0.00000
C          1.08717       -0.04509       -0.00000
C         -1.06437        1.09590       -0.00000
C         -1.11215       -1.40008       -0.00000
C          1.74266        1.19792        0.00000
C         -0.41204        2.33459        0.00000
C          0.99579        2.38854        0.00000
C         -0.39350       -2.74626        0.00000
H          1.69031       -0.96517       -0.00000
H         -2.16260        1.01923       -0.00000
H          2.84336        1.23615        0.00000
H         -0.99910        3.26670        0.00000
H          1.51082        3.36234        0.00000
H         -0.72979       -3.31864        0.88897
H         -0.72979       -3.31864       -0.88897
H          0.71039       -2.69998       -0.00000
