8
ACETIC_ACID.gamout	Energy:    -228.9201694
C          1.30314       -0.84033        1.45647
C          2.71631       -1.37027        1.57376
O          3.01743       -2.52667        1.80144
H          1.27806        0.24425        1.24591
H          0.77939       -1.39266        0.65064
H          0.76159       -1.05286        2.40002
O          3.64752       -0.39166        1.39402
H          4.51739       -0.84148        1.49030
