8
ACROLEIN.gamout	Energy:    -191.7667538
C          0.83254        1.17186        1.59642
C          1.77030        2.23444        1.13012
C          2.82708        1.94583        0.34102
O          0.93357       -0.01282        1.31672
H         -0.01365        1.54109        2.25157
H          1.56222        3.26809        1.45873
H          3.52637        2.72121       -0.00973
H          3.00592        0.90204        0.03089
