7
ACRYLONITRILE.gamout	Energy:    -170.7008834
C          1.13852        0.84233        0.15629
C          2.56385        0.96562        0.06850
C          3.21227        2.15165        0.06528
N         -0.02791        0.71717        0.22728
H          3.12284        0.01554        0.00158
H          4.31030        2.18781       -0.00414
H          2.67048        3.10803        0.13128
