27
ACYCLOVIR.gamout	Energy:    -810.3439786
O         -2.60497        0.14354       -0.26876
O          3.81774        1.02297        1.13105
O         -6.01399       -0.98137        0.03387
N         -0.43266        0.80460       -0.77143
N          1.05060        2.23231        0.17868
N          0.81209       -1.28804       -0.64672
N          2.94596       -0.96754        0.34720
N          2.24983       -3.09288       -0.38645
C          0.67349        0.04249       -0.42793
C         -1.67146        0.31075       -1.31404
C          1.58116        0.95390        0.15178
C         -0.13947        2.11048       -0.36609
C          2.86665        0.46065        0.60537
C         -3.85437       -0.35677       -0.71387
C          1.97916       -1.76055       -0.23408
C         -4.76868       -0.48761        0.49994
H         -1.44928       -0.65700       -1.82404
H         -2.05005        1.03868       -2.07446
H         -0.86719        2.92094       -0.51459
H         -3.74679       -1.35499       -1.20759
H         -4.32927        0.32688       -1.46230
H          3.83804       -1.37211        0.64972
H         -4.28004       -1.17023        1.23852
H         -4.85366        0.51491        0.98759
H          1.53178       -3.67197       -0.81806
H          3.11978       -3.51934       -0.07924
H         -6.60919       -1.05271        0.80110
