26
ADAMANTANE.gamout	Energy:    -390.4327379
C          1.10477       -0.91968        0.57783
C         -1.14711        0.14087        1.03226
C         -0.55627       -0.61878       -1.30813
C          0.59723        1.39789       -0.30277
C         -0.04198       -0.77859        1.60681
C          0.54917       -1.53493       -0.72882
C          1.69885        0.47701        0.27607
C         -1.69952       -0.47629       -0.27505
C         -0.54780        1.53545        0.72900
C          0.04223        0.77701       -1.60728
H          1.89890       -1.57938        0.99355
H         -1.96956        0.24194        1.77497
H         -0.95328       -1.06411       -2.24739
H          1.02682        2.40129       -0.51949
H         -0.46438       -1.77932        1.84974
H          0.34793       -0.35531        2.55939
H          0.13936       -2.55063       -0.52964
H          1.36728       -1.66060       -1.47293
H          2.54120        0.38835       -0.44624
H          2.11958        0.92517        1.20384
H         -2.51147        0.16333       -0.68868
H         -2.15330       -1.47129       -0.06701
H         -0.16533        1.99884        1.66580
H         -1.33824        2.21402        0.33637
H          0.85306        0.68933       -2.36458
H         -0.73608        1.44003       -2.04788
