20
ADIPIC_ACID.gamout	Energy:    -535.2099189
C          6.01068        5.68436       -3.74924
C          5.78373        4.90154       -2.44843
C          6.98408        4.00917       -2.07745
C          4.79742        6.52198       -4.16273
C          6.79148        3.19893       -0.80824
C          5.06906        7.43174       -5.34854
O          6.42982        3.98743        0.24584
O          6.93803        1.99591       -0.69899
O          3.92675        8.02400       -5.79425
O          6.15629        7.63952       -5.85539
H          6.88873        6.35740       -3.64394
H          6.27202        4.98420       -4.57321
H          5.58441        5.60502       -1.61147
H          4.87269        4.26809       -2.54187
H          7.88493        4.64768       -1.93331
H          7.21675        3.28877       -2.88646
H          4.45993        7.17290       -3.32337
H          3.91413        5.89162       -4.40600
H          6.32870        3.37230        1.00648
H          4.20444        8.59980       -6.54146
