13
ALANINE.gamout	Energy:    -323.5094111
C          2.18797        1.61221        0.37326
C          0.83045        1.03845       -0.04610
C          0.80480       -0.48214        0.13327
N         -0.25110        1.67238        0.71450
O          2.11741        2.95356        0.60331
O          3.23129        0.99150        0.44274
H          0.86233       -0.73834        1.21011
H          1.65779       -0.95422       -0.39085
H         -0.13755       -0.90141       -0.27576
H         -0.19120        2.69447        0.61340
H         -1.15491        1.39664        0.30715
H          3.03191        3.23084        0.83478
H          0.79365        1.25307       -1.15241
