24
ALFA-D-FRUCTOFURANOSE.gamout	Energy:    -686.6568825
C         -0.74832        1.13868       -0.32849
O          0.50072        1.66474       -0.82104
C          1.60729        1.00732       -0.25254
C         -0.41787       -0.15958        0.42396
C          1.04490        0.06085        0.86942
C          2.56483        2.06935        0.30807
C         -1.41857        2.20114        0.55010
H         -1.40514        0.90237       -1.19319
O         -2.73446        1.75575        0.84948
H         -1.40989        3.16424       -0.01773
H         -0.79922        2.34175        1.46829
H         -3.06801        2.29395        1.58882
O          3.59887        1.34654        0.99779
H          2.01039        2.75216        0.98935
H          2.96516        2.65640       -0.54890
H          4.31729        1.96754        1.21759
O          2.25343        0.26204       -1.26979
H          3.12893        0.02603       -0.89895
O          1.06377        0.64802        2.16346
H          2.01249        0.80921        2.35696
O         -0.55447       -1.23782       -0.48940
H         -0.28862       -2.05290       -0.02432
H         -1.07459       -0.27337        1.31830
H          1.60858       -0.90243        0.84609
