10
ALLYL_ALCOHOL.gamout	Energy:    -192.9633252
C          0.06366       -0.75347        1.11588
C          0.40985       -0.19551        2.47792
C          1.24318        0.83022        2.72268
O         -0.84894       -1.82751        1.29689
H          1.00127       -1.08687        0.59958
H         -0.37180        0.06113        0.48047
H         -0.09738       -0.71601        3.31091
H          1.76445        1.37011        1.91277
H          1.43922        1.17364        3.75050
H         -1.06784       -2.18160        0.41609
