11
ALLYLAMINE.gamout	Energy:    -173.1174220
C          0.02130        0.08782       -0.25239
C          1.14481        0.58911        0.29160
C          2.50854       -0.04969        0.21268
N          3.49539        0.90957       -0.29746
H         -0.94863        0.60146       -0.15320
H          0.02793       -0.86372       -0.81309
H          1.11435        1.55132        0.83652
H          2.82479       -0.32986        1.24518
H          2.42558       -1.01122       -0.35986
H          4.43441        0.49007       -0.28577
H          3.29044        1.12010       -1.28402
