15
ALLYL_ACETATE.gamout	Energy:    -345.5136631
C         -0.08396        1.23192        0.40815
C          1.03861        1.50965       -0.27726
C          2.30136        0.70024       -0.19975
O          3.39291        1.59512        0.09282
C          4.69122        1.15402        0.15732
O          5.56647        1.96071        0.38324
C          4.93869       -0.33180       -0.05694
H         -0.99487        1.83990        0.29011
H         -0.13795        0.38314        1.11185
H          1.07118        2.37199       -0.96752
H          2.21091       -0.08924        0.58033
H          2.48375        0.19340       -1.17708
H          4.61696       -0.65488       -1.06882
H          6.02055       -0.52220        0.05621
H          4.37946       -0.94867        0.67656
