26
ALPHA-PINENE.gamout	Energy:    -390.3652205
C         -0.84480        0.66094        1.79291
C         -2.42938        0.97367       -0.10470
C          2.58193        1.24652       -0.29817
C         -0.45579       -0.53144       -1.56996
C          0.28133       -1.82144        0.47161
C          0.07132        0.68241       -0.73760
C         -0.91843       -1.12576       -0.20581
C          1.43367        0.28455       -0.17328
C          1.51557       -0.94539        0.39140
C         -1.07858        0.35989        0.30833
H          0.07863        1.69249       -1.19982
H         -1.82548       -1.76905       -0.18937
H         -1.30060       -0.27389       -2.23658
H          0.30315       -1.10107       -2.14499
H          0.04347       -2.06310        1.53480
H          0.47070       -2.80713       -0.01529
H          2.46737       -1.31952        0.80829
H         -0.88299        1.75622        1.97931
H         -1.64299        0.19664        2.41196
H          0.13288        0.29203        2.15755
H         -2.68878        0.79102       -1.16624
H         -3.25115        0.55421        0.51515
H         -2.42446        2.07375        0.05338
H          2.35934        2.20874        0.21648
H          3.51847        0.83611        0.13078
H          2.77376        1.50696       -1.36378
