19
ALPHA-METHYLSTYRENE.gamout	Energy:    -348.7019834
C          3.93615        1.80639        1.82188
C          2.65446        2.10137        2.31737
C          4.12769        0.72144        0.95293
C          1.52437        1.32248        1.96086
C          1.74342        0.22975        1.08097
C          0.16977        1.65285        2.49807
C          3.01955       -0.06618        0.58558
C         -0.94027        0.93707        2.18702
C          0.05117        2.84239        3.42861
H          4.79127        2.43384        2.12036
H          2.53723        2.95825        2.99662
H          5.13106        0.48805        0.56294
H          0.89684       -0.40378        0.77683
H          3.15331       -0.92156       -0.09592
H         -1.92168        1.21331        2.60390
H         -0.92376        0.06246        1.51927
H          0.67844        2.71796        4.33790
H          0.38300        3.78279        2.93752
H         -0.99652        2.98419        3.75768
