34
AMOBARBITAL.gamout	Energy:    -764.7084200
O          0.19581       -1.57361       -2.08536
O          0.37744        1.19411        1.81732
O          3.24320       -2.32644        1.23808
N          1.78110       -1.83734       -0.47476
N          1.80964       -0.54049        1.47472
C          0.27750        0.15533       -0.37629
C         -1.26714        0.27237       -0.39158
C         -1.99835       -0.79916        0.43183
C          0.95263        1.34278       -1.17259
C         -3.54131       -0.72555        0.35169
C          0.70549       -1.15565       -1.05472
C          0.78783        0.32025        1.06739
C          0.50909        1.52612       -2.62710
C         -4.10407        0.57796        0.94676
C         -4.17483       -1.95306        1.03004
C          2.35600       -1.62575        0.78222
H         -1.51903        1.28631       -0.01840
H         -1.59534        0.20436       -1.44884
H         -1.68266       -1.80748        0.08075
H         -1.69483       -0.72858        1.50202
H          2.05544        1.20077       -1.12775
H          0.73417        2.25917       -0.58359
H         -3.81660       -0.75615       -0.72947
H          0.62716        0.59867       -3.22191
H         -0.55221        1.83806       -2.69905
H          1.11896        2.32161       -3.10300
H         -3.72903        1.47970        0.42052
H         -3.82601        0.67656        2.01894
H         -5.21249        0.59721        0.88571
H         -3.93142       -1.97881        2.11488
H         -5.28120       -1.94042        0.93751
H         -3.80944       -2.90139        0.58249
H          2.10559       -2.67749       -0.96708
H          2.18586       -0.38869        2.41749
