14
ANILINE.gamout	Energy:    -287.3973111
C         -0.40192        1.03592       -0.39307
C         -1.02540       -0.22726       -0.56156
C          0.95253        1.12434       -0.04062
C          1.72459       -0.03571        0.15398
C          1.11335       -1.29172       -0.01268
C         -0.24052       -1.39299       -0.36541
N         -2.38342       -0.31877       -0.85699
H         -0.99389        1.95514       -0.53835
H          1.41164        2.11885        0.08206
H          2.78799        0.03898        0.42841
H          1.70036       -2.21339        0.13186
H         -0.70453       -2.38578       -0.48953
H         -2.80762        0.50253       -1.29206
H         -2.69809       -1.19646       -1.27463
