26
ANTIPYRINE.gamout	Energy:    -610.6649051
O          0.39179        6.74666        0.03602
N          2.36529        5.44703       -0.07170
N          3.74176        5.70753        0.05869
C          3.86598        7.03779        0.46445
C          1.92970        4.37950       -0.89413
C          1.60895        6.66008        0.15994
C          2.63351        7.64326        0.49798
C          4.52333        4.65856        0.72248
C          5.20462        7.59963        0.83489
C          2.77274        3.83715       -1.89260
C          0.62241        3.86684       -0.72557
C          2.31873        2.77788       -2.69433
C          0.17889        2.82035       -1.54925
C          1.02117        2.26346       -2.52850
H          2.42088        8.69749        0.70516
H          4.38317        3.69944        0.18857
H          4.22609        4.52807        1.78816
H          5.59532        4.92585        0.66713
H          5.98037        7.34826        0.08175
H          5.13951        8.70178        0.90738
H          5.55374        7.22117        1.82031
H          3.77113        4.27100       -2.05292
H         -0.03444        4.31096        0.03332
H          2.98658        2.36152       -3.46545
H         -0.84171        2.42829       -1.41324
H          0.66665        1.43683       -3.16384
