30
APIGENIN.gamout	Energy:    -953.0840702
O         -0.04813        0.66759       -0.03292
O         -4.13730       -1.85029        0.06576
O         -1.88046       -3.01466        0.08902
O         -4.17869        2.95592       -0.05428
O          6.23708        0.82770       -0.01628
C         -2.07489       -0.64661        0.01681
C         -1.41947        0.60414       -0.02058
C          0.71071       -0.46595        0.01242
C          2.15257       -0.16019        0.00590
C         -1.31249       -1.88469        0.05355
C          0.12845       -1.71489        0.05645
C         -3.50779       -0.67652        0.02981
C         -2.11417        1.81391       -0.04591
C         -3.52496        1.76422       -0.03172
C         -4.21926        0.53676        0.00481
C          3.13321       -1.18058        0.00226
C          2.60165        1.18454       -0.00360
C          4.49591       -0.87404       -0.00533
C          3.96127        1.49914       -0.01296
C          4.92627        0.47073       -0.01085
H          0.74608       -2.62035        0.09845
H         -1.58896        2.77559       -0.07519
H         -5.31942        0.50433        0.01572
H          2.83658       -2.23905       -0.00078
H          1.86339        1.99714       -0.00339
H          5.23678       -1.68987       -0.00802
H          4.30073        2.54440       -0.02162
H         -3.37443       -2.55061        0.08134
H         -5.13930        2.78136       -0.04129
H          6.78627        0.02003       -0.00728
