16
ASPARTIC_ACID.gamout	Energy:    -511.9429517
C          1.78084        1.58512       -0.24552
C          3.03839        0.87675        0.30930
C          4.23671        1.83582        0.21929
N          3.35457       -0.42647       -0.26000
C          0.50481        0.76921       -0.04979
O          4.16534        3.00105       -0.13662
O          5.39364        1.25614        0.60824
O          0.46105       -0.35718        0.40329
O         -0.64605        1.39235       -0.42859
H          1.91537        1.79915       -1.33055
H          1.65867        2.58170        0.23448
H          2.54806       -1.04291       -0.08711
H          3.46652       -0.35403       -1.28108
H          6.07658        1.95893        0.52195
H         -0.43746        2.29323       -0.75015
H          2.87849        0.71414        1.40130
