29
AZELAIC_ACID.gamout	Energy:    -653.0573525
C          1.48915        1.28203        3.01444
C          2.54897        1.90479        2.08359
C          3.98096        1.74150        2.61286
C          0.06671        1.43940        2.51161
C          5.04977        2.35814        1.69759
O         -0.10729        0.84416        1.29514
O         -0.83641        2.01952        3.08522
C          6.48264        2.19358        2.22594
C          7.55151        2.80464        1.30918
C          8.98267        2.63033        1.85273
C         10.02028        3.19779        0.90169
O         10.77432        4.17572        1.47695
O         10.17478        2.84947       -0.25509
H          1.52601        1.73593        4.02462
H          1.68936        0.19277        3.12704
H          2.46086        1.44368        1.07615
H          2.32305        2.98671        1.94921
H          4.05591        2.19682        3.62723
H          4.19917        0.65740        2.75418
H          4.97429        1.90207        0.68384
H          4.83152        3.44189        1.55527
H         -1.04712        1.01053        1.05850
H          6.70159        1.10991        2.36982
H          6.55726        2.65104        3.23943
H          7.34530        3.88944        1.16541
H          7.49924        2.34500        0.29825
H          9.20674        1.54539        1.95615
H          9.09565        3.09201        2.85426
H         11.39921        4.46868        0.77524
