24
AZOBENZENE.gamout	Energy:    -572.3479688
C          6.13135        1.69981       -0.42202
C          6.71417        0.41296       -0.36327
C          4.72005        1.83263       -0.43790
N          7.04246        2.78472       -0.46121
C          5.90127       -0.72980       -0.32075
C          3.91598        0.68827       -0.39531
C          4.50152       -0.59485       -0.33666
N          6.50816        3.93524       -0.51328
C          7.41926        5.02016       -0.55247
C          9.04908        7.31482       -0.63785
C          7.64934        7.44977       -0.65367
C          9.63464        6.03171       -0.57928
C          6.83644        6.30700       -0.61114
C          8.83057        4.88735       -0.53661
H          7.81296        0.34528       -0.35238
H          4.29152        2.84463       -0.48372
H          6.35994       -1.73022       -0.27512
H          2.81858        0.78865       -0.40752
H          3.86070       -1.49042       -0.30338
H          9.68990        8.21040       -0.67120
H          7.19065        8.45019       -0.69920
H         10.73203        5.93133       -0.56715
H          5.73766        6.37469       -0.62202
H          9.25911        3.87535       -0.49088
