26
B-PINENE.gamout	Energy:    -390.3592152
C         -0.11477        2.47848       -0.54647
C          1.27773        2.59765        0.08887
C          1.98126        1.18893        0.20416
C          1.13150        1.03373        1.52569
C          1.12456        2.58727        1.63859
H          2.00983        2.98961        2.16768
H          0.21282        3.06141        2.06208
H          1.86415        3.41786       -0.37971
C          3.48623        1.31855        0.49673
H          3.70896        2.04335        1.30564
H          4.03403        1.65368       -0.41054
H          3.91382        0.33870        0.80019
C          1.78433        0.16897       -0.92466
H          0.72284        0.01312       -1.20065
H          2.20169       -0.81956       -0.63450
H          2.32228        0.49296       -1.84220
C         -0.29705        0.55571        1.22185
H          1.58609        0.44504        2.35191
C         -0.95754        1.37062        0.10059
H         -0.90973        0.63414        2.14843
H         -0.29797       -0.52416        0.95265
H         -0.02802        2.29620       -1.64088
H         -0.64287        3.45369       -0.44587
C         -2.21994        1.11961       -0.30398
H         -2.82655        0.32164        0.15686
H         -2.69474        1.70095       -1.11240
