17
BA+1.gamout	Energy:    -214.0007281
C          2.09689        1.64485        1.49619
C          3.51879        1.31833        1.99976
C          4.59136        1.90656        1.08895
C          1.00342        1.05946        2.39788
N          5.99400        1.55213        1.58264
H          1.97928        2.74923        1.42736
H          1.98159        1.25636        0.46001
H          3.64315        1.71367        3.03384
H          3.64258        0.21248        2.05925
H          4.52393        1.51761        0.05270
H          4.55189        3.01381        1.04725
H          1.06131        1.46771        3.42823
H         -0.00142        1.30182        1.99936
H          1.07810       -0.04601        2.46366
H          6.74119        1.94229        0.97611
H          6.15463        1.91100        2.54429
H          6.12990        0.52292        1.62231
