26
BACLOFEN.gamout	Energy:   -1053.1747717
Cl        -4.71001        0.31314        0.29516
O          2.28018        2.80616        0.06498
O          2.02510        1.55572       -1.80427
N          3.02697       -2.54479        0.47318
C          1.29199       -0.73286       -0.13290
C         -0.19854       -0.43822       -0.02693
C          2.16457        0.43922        0.35563
C          1.65447       -2.06896        0.59098
C         -1.02271       -0.44578       -1.17327
C         -0.80974       -0.18383        1.22220
C          2.13524        1.62559       -0.59311
C         -2.40566       -0.21604       -1.08613
C         -2.18994        0.04642        1.33192
C         -2.98360        0.02712        0.17128
H          1.52914       -0.86498       -1.21188
H          1.90088        0.77475        1.37939
H          3.22564        0.09808        0.39709
H          0.97264       -2.85473        0.19687
H          1.41088       -1.98037        1.67306
H         -0.56952       -0.62606       -2.16149
H         -0.20126       -0.16553        2.14154
H          3.68645       -1.94217        0.98143
H          3.33353       -2.55916       -0.50916
H         -3.03711       -0.22089       -1.98692
H         -2.65517        0.24067        2.30964
H          2.27806        3.49976       -0.63301
