13
BENZONITRILE.gamout	Energy:    -324.2510793
N         -1.83564       -3.17956       -0.00008
C         -0.52916       -0.91622        0.00012
C          0.88831       -0.91393        0.00003
C         -1.23576        0.31223        0.00003
C          1.58296        0.30398       -0.00002
C         -0.52830        1.52273       -0.00002
C          0.87874        1.52176       -0.00004
C         -1.24821       -2.16198        0.00001
H          1.43188       -1.87055        0.00002
H         -2.33607        0.30464        0.00002
H          2.68419        0.30229       -0.00007
H         -1.08012        2.47565       -0.00007
H          1.42921        2.47570       -0.00008
