16
BENZYL_MERCAPTAN.gamout	Energy:    -669.4674798
S          0.51083        1.32728       -3.50585
C         -0.26720        0.05850       -1.07908
C          0.80310        0.10239       -2.14743
C         -0.60429        1.21048       -0.33262
C         -0.94047       -1.14900       -0.79716
C         -1.57970        1.15088        0.67388
C         -1.92135       -1.21020        0.20947
C         -2.24212       -0.06078        0.94986
H          1.77509        0.43192       -1.72184
H          0.96540       -0.90318       -2.58570
H         -0.10270        2.16463       -0.56238
H         -0.68925       -2.05601       -1.37255
H         -1.82728        2.05717        1.24980
H         -2.43672       -2.16234        0.41417
H         -3.00925       -0.10597        1.73923
H         -0.69835        0.83210       -3.89826
