27
BENZYL_NICOTINATE.gamout	Energy:    -706.7025937
O         -0.02585        0.50905       -0.06024
O          1.26323        2.36178       -0.33617
N          3.24114       -1.98310        0.40304
C         -2.43943        0.49163       -0.11538
C         -1.20190        1.35125       -0.19242
C         -3.33879        0.44899       -1.19988
C         -2.73062       -0.26435        1.04199
C          2.32949        0.23359        0.01777
C         -4.51318       -0.32103       -1.13047
C         -3.89667       -1.04357        1.10869
C          1.16390        1.15954       -0.14542
C         -4.79313       -1.07046        0.02419
C          3.62920        0.77355       -0.06608
C          2.19517       -1.15437        0.25080
C          4.72430       -0.08499        0.08808
C          4.47464       -1.45097        0.32293
H         -1.17104        2.11518        0.61536
H         -1.14952        1.90031       -1.15558
H         -3.11494        1.02857       -2.11065
H         -2.03256       -0.24615        1.89438
H         -5.20711       -0.33908       -1.98565
H         -4.11174       -1.63086        2.01561
H         -5.71042       -1.67796        0.08014
H          3.74521        1.85283       -0.25118
H          1.18814       -1.60178        0.31103
H          5.75735        0.29157        0.02865
H          5.31778       -2.15476        0.45202
