17
BENZYLAMINE.gamout	Energy:    -326.6673371
N          7.53416        4.01806       -0.14566
C          7.24755        3.03646       -1.20504
C          6.30439        1.90614       -0.81231
C          6.80348        0.71051       -0.24913
C          4.90476        2.04746       -0.94463
C          5.93472       -0.30878        0.17607
C          4.54367       -0.15034        0.04263
C          4.03094        1.03170       -0.52098
H          6.64602        4.42415        0.18439
H          7.91494        3.52430        0.67512
H          8.21485        2.60648       -1.54592
H          6.82716        3.58548       -2.07610
H          7.89443        0.57593       -0.14902
H          4.49438        2.96829       -1.39407
H          6.34556       -1.23567        0.60799
H          3.86074       -0.94972        0.37163
H          2.94261        1.15994       -0.63778
