32
BENZO-B-FLUORANTHENE.gamout	Energy:    -768.8435305
C         -0.16548       -0.57588       -0.00010
C         -0.41647        0.84243       -0.00010
C         -1.38864       -1.30708       -0.00010
C          1.11473       -1.16472       -0.00010
C         -1.88445        1.00412       -0.00010
C         -2.47830       -0.30659       -0.00010
C          2.25785       -0.25277       -0.00010
C          0.66049        1.70408       -0.00010
C          2.00723        1.17520       -0.00010
C         -1.32928       -2.70315       -0.00010
C          1.14316       -2.59080       -0.00010
C         -2.69532        2.14894       -0.00010
C         -3.87457       -0.44572       -0.00010
C         -0.05050       -3.32600       -0.00010
C          3.60381       -0.70203       -0.00010
C          3.12000        2.06456       -0.00010
C         -4.09554        1.99558       -0.00010
C         -4.67828        0.71214       -0.00010
C          4.67270        0.19592       -0.00010
C          4.42989        1.59053       -0.00010
H          0.52781        2.79874       -0.00010
H         -2.24080       -3.32181       -0.00010
H          2.10237       -3.13089       -0.00010
H         -2.24653        3.15523       -0.00010
H         -4.34088       -1.44393       -0.00010
H          0.00367       -4.42645       -0.00010
H          3.81095       -1.78334       -0.00010
H          2.92437        3.14957       -0.00010
H         -4.74211        2.88738       -0.00010
H         -5.77542        0.61351       -0.00010
H          5.70660       -0.18405       -0.00010
H          5.27380        2.29825       -0.00010
