15
BENZOTRIFLUORIDE.gamout	Energy:    -568.8676694
F          6.65594        3.94007       -1.76852
C          7.24434        3.01325       -0.97007
F          8.39185        2.61862       -1.57857
F          7.60412        3.65019        0.17687
C          6.32202        1.84381       -0.69259
C          6.86116        0.56557       -0.45046
C          4.92915        2.04601       -0.63206
C          6.00712       -0.50686       -0.14644
C          4.61669       -0.30675       -0.08477
C          4.07963        0.96986       -0.32896
H          7.94910        0.41134       -0.50872
H          4.51412        3.04515       -0.83284
H          6.43084       -1.50635        0.03911
H          3.94845       -1.14994        0.15145
H          2.99065        1.12894       -0.28671
