15
BENZYL_DICHLORIDE.gamout	Energy:   -1190.3526043
Cl         8.29240        3.44163        0.44132
C          7.24510        3.01237       -0.97910
Cl         8.27812        2.68588       -2.43692
C          6.34270        1.84749       -0.66898
C          6.87122        0.58095       -0.33849
C          4.94515        2.02719       -0.71033
C          6.01006       -0.48747       -0.05417
C          4.08314        0.95313       -0.42465
C          4.61384       -0.30481       -0.09635
H          6.66994        3.92521       -1.21575
H          7.96303        0.44141       -0.30663
H          4.52759        3.01442       -0.96804
H          6.42914       -1.47320        0.20298
H          2.99248        1.10309       -0.45944
H          3.94036       -1.14727        0.12769
