28
BENZYL_BENZOATE.gamout	Energy:    -690.6778306
C          8.17402        3.08346       -1.44563
C          7.14548        2.93665       -2.40293
C          8.21680        2.22576       -0.32447
C          9.23800        4.13104       -1.56006
C          6.17218        1.93897       -2.23594
C          7.24205        1.23109       -0.16181
C          6.21868        1.08628       -1.11747
C         10.07629        5.93875       -2.87226
O          9.10797        4.87517       -2.69348
C          9.54480        6.91263       -3.89569
O         10.12358        4.30921       -0.73716
C          8.54050        8.75995       -5.78744
C          9.73899        8.07217       -6.04137
C          7.84200        8.52645       -4.58798
C         10.23210        7.14711       -5.10354
C          8.34378        7.61432       -3.64737
H          7.12196        3.60805       -3.27320
H          9.02975        2.36283        0.40466
H          5.37196        1.82318       -2.98395
H          7.27818        0.56231        0.71267
H          5.45319        0.30428       -0.98936
H         10.24693        6.42144       -1.88575
H         11.04625        5.49885       -3.18912
H          8.14879        9.47990       -6.52363
H         10.28736        8.24702       -6.98066
H          6.90342        9.06577       -4.38287
H         11.16786        6.60119       -5.30836
H          7.79621        7.43193       -2.70867
