15
BENZOIC_ACID.gamout	Energy:    -420.5237559
C          6.28874        1.86797       -0.72465
C          6.84166        0.63966       -0.30132
C          4.89725        2.02424       -0.79922
C          5.98900       -0.43129        0.04679
C          8.33133        0.52728       -0.23975
C          4.04979        0.95536       -0.45165
C          4.59653       -0.27026       -0.02942
O          8.75367       -0.69878        0.18080
O          9.11170        1.42093       -0.52887
H          6.97496        2.68668       -0.99026
H          4.46878        2.98353       -1.12994
H          6.42571       -1.38530        0.37596
H          2.95644        1.07838       -0.51026
H          3.93266       -1.10610        0.24250
H          9.73454       -0.64650        0.17859
