16
BENZAMIDE.gamout	Energy:    -400.6661375
O          2.38239       -1.13347        0.00298
N          2.49706        1.13968        0.00081
C          0.29097        0.04799        0.00058
C         -0.44173        1.25567       -0.00119
C         -0.41315       -1.17531        0.00149
C         -1.84680        1.23867       -0.00200
C         -1.81552       -1.19435        0.00069
C         -2.53671        0.01361       -0.00103
C          1.80446       -0.04528        0.00156
H          0.06823        2.23316       -0.00190
H          0.18141       -2.10180        0.00282
H         -2.40550        2.18801       -0.00333
H         -2.35082       -2.15717        0.00142
H         -3.63837        0.00199       -0.00171
H          2.05097        2.05448       -0.00044
H          3.51630        1.08803        0.00139
