21
BENZYL_ACETATE.gamout	Energy:    -499.0741612
O          0.82584        3.60207        1.86227
C          1.77296        4.44726        1.15940
C          3.17033        3.97492        1.47594
C         -0.48845        3.91579        1.67783
C          3.64279        3.97192        2.80754
C          4.03043        3.53260        0.45026
C         -1.37791        2.96535        2.45323
O         -0.86384        4.83730        0.97753
C          4.94252        3.53407        3.10367
C          5.33502        3.09772        0.74367
C          5.79338        3.09561        2.07162
H          1.60773        5.50054        1.47803
H          1.56393        4.40829        0.06963
H          2.97948        4.31371        3.61833
H          3.67181        3.52892       -0.59239
H         -2.43651        3.23372        2.28841
H         -1.19723        1.92201        2.12347
H         -1.13967        3.01315        3.53508
H          5.29712        3.53540        4.14680
H          5.99418        2.75543       -0.06988
H          6.81393        2.75280        2.30477
