23
BENZOCAINE.gamout	Energy:    -554.4058756
O         -2.24665       -0.36150       -0.04406
O         -1.86495        1.88159       -0.03761
N          4.13648       -0.52823        0.00064
C          0.00729        0.36661       -0.02718
C          0.97348        1.40030       -0.01861
C          0.45863       -0.97429       -0.02629
C          2.79486       -0.23581       -0.00843
C          2.33851        1.11235       -0.00944
C          1.82195       -1.27423       -0.01714
C         -1.43146        0.73692       -0.03656
C         -3.66361       -0.09525       -0.05270
C         -4.38952       -1.43081       -0.06027
H          0.61854        2.44256       -0.01931
H         -0.28075       -1.78819       -0.03288
H          3.07560        1.93221       -0.00280
H          2.15341       -2.32576       -0.01652
H         -3.92611        0.51698        0.83781
H         -3.91467        0.52076       -0.94397
H         -5.48679       -1.26817       -0.06697
H         -4.12167       -2.02457       -0.95804
H         -4.13325       -2.02857        0.83824
H          4.46046       -1.49234        0.00146
H          4.83542        0.21085        0.00693
