71
BETAMETHASONE_VALERATE.gamout	Energy:   -1601.1362286
F          1.78573       -1.20051        0.13967
O         -2.33712       -0.19834        0.06459
O          2.04522        1.88177        1.94374
O         -3.22322        3.27671        0.32992
O         -4.98311        1.64617        2.01984
O         -4.56806        0.05903       -0.27489
O          6.07816       -3.42477        0.33252
C         -0.55253        1.44179        0.17630
C          0.12292        0.81297       -1.07615
C          1.66106        0.85663       -1.05767
C          2.18381        0.16103        0.23095
C         -2.08154        1.22590       -0.19914
C         -0.64236        1.44539       -2.24451
C         -0.05722        0.67416        1.41749
C         -2.13053        1.42366       -1.77961
C          1.48429        0.63030        1.54073
C          3.77312        0.11887        0.29482
C          2.24709        0.17908       -2.31549
C         -0.26645        2.95642        0.30632
C          3.78134        0.02969       -2.26994
C          4.23142       -0.59856       -0.97522
C         -3.00590        2.12202        0.65993
C         -2.97570        2.55536       -2.37542
C          4.43275        1.53579        0.32882
C          4.21750       -0.59101        1.55560
C          4.97932       -1.73295       -0.93529
C         -3.57444        1.59758        2.00406
C          4.96492       -1.71819        1.57137
C         -3.59952       -0.66583       -0.07378
C          5.40168       -2.39060        0.32108
C         -3.64558       -2.17560        0.05633
C         -5.05563       -2.76898       -0.00808
C         -5.06559       -4.30197        0.09191
C         -6.47318       -4.90570        0.01567
H         -0.14682       -0.26646       -1.05248
H          2.00154        1.91521       -1.02370
H         -0.30229        2.48818       -2.42689
H         -0.51626        0.89259       -3.19748
H         -0.42325       -0.37025        1.37434
H         -0.46078        1.10863        2.36213
H         -2.57024        0.47518       -2.15046
H          1.72619       -0.15410        2.29742
H          1.95515        0.75555       -3.21791
H          1.79112       -0.82928       -2.41183
H         -0.68812        3.35628        1.25088
H          0.82200        3.14559        0.33164
H         -0.71993        3.54991       -0.50977
H          4.24781        1.03538       -2.37537
H          4.13737       -0.57498       -3.12892
H         -4.03774        2.47420       -2.07466
H         -2.61825        3.55789       -2.07521
H         -2.92786        2.48355       -3.48338
H          4.08471        2.17947       -0.50237
H          4.19842        2.05239        1.27562
H          5.53148        1.41961        0.23597
H          3.94679       -0.09673        2.50467
H          1.51084        2.21397        2.68961
H          5.30757       -2.22788       -1.86505
H         -3.21235        2.30759        2.78014
H         -3.16667        0.58955        2.26287
H          5.29628       -2.18356        2.51402
H         -2.99299       -2.58931       -0.74601
H         -3.12615       -2.44602        1.00284
H         -5.27145        1.14233        1.22778
H         -5.67576       -2.33320        0.80616
H         -5.54334       -2.44760       -0.95457
H         -4.57627       -4.61094        1.04402
H         -4.43118       -4.72660       -0.71949
H         -7.11993       -4.52873        0.83640
H         -6.97175       -4.64806       -0.94303
H         -6.44700       -6.01218        0.09222
