24
BETA-D-FRUCTOFURANOSE.gamout	Energy:    -686.6537680
O         -0.54090        3.17974        4.89418
C         -1.15722        4.14478        4.03602
C         -0.12245        2.03702        4.15311
C         -1.26033        3.48683        2.64607
C         -0.07590        2.50958        2.66232
C          1.24260        1.57508        4.68319
C         -2.50811        4.63053        4.57062
H         -0.48909        5.04346        3.94926
O         -3.01964        5.66867        3.75085
H         -2.38296        5.03942        5.59552
H         -3.19506        3.75007        4.64907
H         -2.90541        5.38320        2.81957
O          1.10775        1.08320        5.99409
H          1.61506        0.79070        3.96815
H          1.94572        2.44356        4.61534
H          1.99916        0.87181        6.32399
O         -1.09015        1.01805        4.25739
H         -1.14289        0.63233        3.35223
O         -1.35285        4.40544        1.56911
H         -2.18025        2.86535        2.58993
H         -0.63269        5.05928        1.67579
O         -0.29059        1.44318        1.74602
H          0.56269        0.99541        1.58986
H          0.87358        3.05660        2.44798
