96
BETACAROTENE.gamout	Energy:   -1556.7098970
C          1.17520       -0.15607       -0.07868
C          0.40694       -1.24605        0.26292
C          2.63901       -0.07593       -0.09458
C         -1.04376       -1.34527        0.27621
C          3.22955        1.28442        0.37523
C          3.44539       -1.12251       -0.49235
C         -1.86635       -0.37908       -0.29763
C         -1.64491       -2.56917        0.94332
C          2.93766        1.47409        1.88634
C          2.58848        2.46261       -0.40362
C          4.75863        1.35035        0.12051
C          2.94104       -2.39373       -1.13658
C          4.95652       -1.08249       -0.36900
C         -3.29026       -0.38836       -0.30753
C          5.48152        0.05931        0.50223
C         -4.06464        0.60315       -0.89703
C         -5.49991        0.69248       -0.97492
C         -6.34408       -0.31402       -0.49351
C         -6.08761        1.93552       -1.61853
C         -7.76253       -0.30669       -0.52695
C         -8.56594       -1.34325       -0.05381
C         -9.98534       -1.32719       -0.09496
C        -10.86916       -2.31941        0.33516
C        -12.30325       -2.17224        0.23864
C        -10.38732       -3.62659        0.93185
C        -13.03332       -1.07946       -0.20100
C        -14.45965       -1.05159       -0.25254
C        -15.27258       -0.00597       -0.67295
C        -16.72884       -0.08957       -0.64477
C        -14.71615        1.30083       -1.19704
C        -17.50791       -1.02147       -0.00399
C        -18.97476       -1.08684        0.01259
C        -19.59999       -1.49700        1.37655
C        -19.75034       -0.81054       -1.09295
C        -19.33629       -0.37460        2.41330
C        -18.96142       -2.81087        1.89703
C        -21.12524       -1.75089        1.24418
C        -19.20078       -0.59013       -2.48482
C        -21.26436       -0.75122       -1.03445
C        -21.83214       -0.70364        0.38476
H          0.63914        0.78590       -0.28980
H          0.93523       -2.14793        0.61741
H         -1.38256        0.47225       -0.80916
H         -0.85694       -3.25527        1.31238
H         -2.29221       -3.14658        0.24825
H         -2.27685       -2.29534        1.81611
H          1.84963        1.40982        2.09439
H          3.29757        2.46667        2.23350
H          3.43683        0.69537        2.49946
H          1.51963        2.61532       -0.15087
H          2.66553        2.31117       -1.50077
H          3.11681        3.40678       -0.15182
H          5.17509        2.22352        0.66924
H          4.93717        1.55101       -0.96098
H          1.91728       -2.29614       -1.54560
H          2.94072       -3.25099       -0.42486
H          3.62617       -2.68769       -1.96272
H          5.39560       -1.01558       -1.39507
H          5.30337       -2.06922        0.01772
H         -3.79918       -1.23253        0.18872
H          5.30719       -0.17462        1.57598
H          6.58030        0.16874        0.38118
H         -3.51190        1.43973       -1.36430
H         -5.87560       -1.21066       -0.05029
H         -5.29322        2.64641       -1.91968
H         -6.77117        2.47382       -0.92712
H         -6.67985        1.68951       -2.52649
H         -8.27320        0.57373       -0.95690
H         -8.05537       -2.22483        0.37358
H        -10.43026       -0.41409       -0.52974
H        -12.89019       -3.05051        0.56869
H         -9.28577       -3.71027        0.97492
H        -10.76675       -4.49076        0.34384
H        -10.77500       -3.75400        1.96624
H        -12.48860       -0.17620       -0.52539
H        -14.96401       -1.97956        0.07304
H        -17.24855        0.73393       -1.16584
H        -13.61121        1.32869       -1.22572
H        -15.05937        2.15662       -0.57495
H        -15.08244        1.49815       -2.22887
H        -16.98574       -1.76268        0.62661
H        -18.25060       -0.16558        2.50799
H        -19.71969       -0.66547        3.41499
H        -19.82784        0.57585        2.11921
H        -17.90120       -2.68393        2.19585
H        -19.01137       -3.61494        1.13275
H        -19.50730       -3.16569        2.79749
H        -21.56508       -1.80153        2.26435
H        -21.28295       -2.75428        0.78664
H        -18.17128       -0.97732       -2.60666
H        -19.19339        0.48758       -2.76593
H        -19.85751       -1.09227       -3.22999
H        -21.67647       -1.63346       -1.58430
H        -21.60402        0.12918       -1.62807
H        -21.68319        0.31096        0.81634
H        -22.92951       -0.87643        0.37209
