19
BHEA+1.gamout	Energy:    -364.3087144
O         -8.75576       -0.09433       -0.07397
C         -7.67917       -0.98022       -0.21494
C         -6.43873       -0.09917       -0.03010
H         -7.64163       -1.47421       -1.22144
H         -7.67564       -1.79782        0.55267
N         -5.15715       -0.88135       -0.18644
H         -6.43119        0.35917        0.97806
H         -6.42990        0.71541       -0.78105
C         -3.89164       -0.07759       -0.01034
C         -2.63354       -0.93764       -0.17325
H         -3.92287        0.38181        0.99693
H         -3.90173        0.73587       -0.76246
O         -1.57474       -0.03252       -0.01964
H         -2.64735       -1.43522       -1.17861
H         -2.63453       -1.75276        0.59689
H         -0.72499       -0.50763       -0.09027
H         -9.59584       -0.58328       -0.16248
H         -5.14617       -1.33269       -1.12275
H         -5.15593       -1.67043        0.49066
