25
BMIM+1.gamout	Energy:    -422.8602577
C         -0.97384        0.49526       -0.82888
C         -1.94464       -0.12928        0.18330
C         -3.40406       -0.03873       -0.29276
C         -4.38662       -0.71217        0.67218
N          0.43939        0.45926       -0.38390
C          1.23837       -0.62709       -0.40733
N          2.43760       -0.29470        0.11700
C          2.40087        1.04033        0.48608
C          1.14493        1.51238        0.17420
C          3.57981       -1.20664        0.27266
H         -1.02527       -0.02097       -1.80968
H         -1.21504        1.56120       -1.01051
H         -1.66976       -1.19608        0.34629
H         -1.83153        0.37924        1.16634
H         -3.67777        1.03212       -0.42472
H         -3.49197       -0.50226       -1.30141
H         -5.42751       -0.60939        0.30842
H         -4.17576       -1.79738        0.77778
H         -4.34050       -0.25827        1.68450
H          0.96243       -1.61577       -0.79252
H          3.26376        1.54748        0.92934
H          0.70992        2.51011        0.29331
H          3.83627       -1.66226       -0.70221
H          4.44689       -0.62956        0.63863
H          3.33835       -2.00042        1.00588
