31
BMMOR+1.gamout	Energy:    -484.3471256
O         -3.65147       -0.07301       -0.55317
C         -3.60279       -1.06249       -1.56642
C         -2.74235        0.99196       -0.81134
C         -2.27464       -1.84850       -1.49048
H         -3.74394       -0.61351       -2.57850
H         -4.44887       -1.75726       -1.39573
C         -1.42609        0.48167       -1.43893
H         -2.56413        1.49279        0.16091
H         -3.18452        1.74748       -1.50345
N         -1.11506       -0.94975       -1.01919
H         -2.00106       -2.26344       -2.48051
H         -2.32692       -2.68705       -0.77166
H         -0.56292        1.11622       -1.15652
H         -1.48079        0.46232       -2.54551
C          0.15914       -1.37630       -1.69739
H          0.34248       -2.44663       -1.49610
H          0.99687       -0.76999       -1.30605
H          0.05579       -1.21428       -2.78638
C         -0.97608       -1.01492        0.52084
C         -0.44204       -2.33053        1.11009
H         -1.99583       -0.80087        0.88918
H         -0.31773       -0.16416        0.79477
C          1.07701       -2.41953        1.36247
H         -0.78906       -3.20427        0.51110
H         -0.96104       -2.45213        2.08583
C          1.48275       -3.73925        2.02796
H          1.37761       -1.56587        2.01086
H          1.64821       -2.29299        0.41706
H          1.23867       -4.61324        1.38762
H          0.96045       -3.88072        2.99760
H          2.57237       -3.76705        2.22761
