27
BMPY+1.gamout	Energy:    -444.9015927
C         -5.58497       -1.65249        0.01395
C         -4.57952       -0.49588        0.03229
H         -5.46486       -2.31065        0.89997
H         -5.47046       -2.28213       -0.89327
H         -6.62475       -1.26970        0.02332
C         -3.11229       -0.97584        0.01539
H         -4.74639        0.13501        0.93381
H         -4.75350        0.16908       -0.84321
C         -2.15844        0.21226        0.05006
H         -2.94262       -1.58540       -0.90049
H         -2.93876       -1.64015        0.89171
N         -0.68370       -0.10373        0.03467
H         -2.32622        0.81842        0.96530
H         -2.33233        0.87673       -0.82223
C          0.18085        0.95181        0.07042
C         -0.21944       -1.37865       -0.01343
C          1.55532        0.73700        0.05898
H         -0.27268        1.95323        0.10802
C          2.04875       -0.57820        0.00725
H          2.23351        1.60230        0.08905
C          1.15841       -1.67180       -0.03083
H          3.13561       -0.75740       -0.00408
H         -0.97859       -2.17195       -0.03890
C          1.62943       -3.10193       -0.08580
H          2.73409       -3.15873       -0.09485
H          1.25352       -3.61403       -0.99608
H          1.26385       -3.67721        0.79037
