13
BOB-1.gamout	Energy:    -778.8335038
B          0.50826       -0.97703        0.21851
O         -0.59632       -0.04911        0.56381
O          1.70439       -0.45894        0.92737
O          0.19624       -2.36825        0.62711
O          0.73207       -1.02965       -1.24748
C          0.57561       -2.28810       -1.68469
C          0.22573       -3.17369       -0.44582
C         -0.14243        0.91158        1.38263
C          1.37770        0.64123        1.62262
O         -0.79224        1.82348        1.85055
O          2.12585        1.30406        2.31089
O          0.01881       -4.36951       -0.45271
O          0.68514       -2.66845       -2.83209
