7
BORIC_ACID.gamout	Energy:    -252.2902544
O          0.85019        2.40478        0.29346
B          0.78049        1.79245       -0.94041
O          0.41198        0.47081       -0.94260
O          1.05141        2.40165       -2.15780
H          1.12941        3.33385        0.26231
H          0.37913        0.12993       -1.85377
H          1.28894        3.34197       -2.09854
