24
BPY+1.gamout	Energy:    -405.6096574
N          0.07085        0.58657        0.61991
C          0.61577        1.59236        1.36573
C          0.29879        2.92523        1.11569
C         -0.59924        3.23711        0.07760
C         -0.79958        0.87001       -0.38577
C         -1.15152        2.19114       -0.67736
H          1.30874        1.28469        2.16300
H          0.75729        3.70971        1.73553
H         -0.86388        4.28372       -0.13757
H         -1.85742        2.38418       -1.49854
H         -1.20279        0.01600       -0.94435
C          0.47651       -0.82788        0.95237
C         -0.15535       -1.92533        0.10293
H          0.22815       -0.97056        2.02498
H          1.58289       -0.85338        0.86230
C          0.35866       -3.31742        0.52661
H          0.08256       -1.76579       -0.97276
H         -1.26360       -1.90285        0.20439
C         -0.25865       -4.45068       -0.30092
H         -1.36267       -4.48262       -0.18974
H          0.13674       -5.43404        0.02191
H         -0.02935       -4.33832       -1.38130
H          0.13985       -3.47749        1.60599
H          1.46714       -3.34117        0.43185
