30
BQUIN+1.gamout	Energy:    -559.1504966
N         -2.14193        1.10808       -0.00008
C         -2.77952        2.46635       -0.01360
C         -4.30605        2.50193        0.00129
H         -2.39741        2.98310       -0.91914
H         -2.38089        3.00897        0.86874
C         -4.82428        3.95536       -0.02045
H         -4.69705        1.99536        0.91208
H         -4.71807        1.96246       -0.88058
C         -6.35492        4.03554        0.00051
H         -4.43328        4.47071       -0.92617
H         -4.40737        4.50734        0.85149
H         -6.80218        3.52591       -0.87863
H         -6.69634        5.08958       -0.01863
H         -6.77567        3.56635        0.91453
C         -2.90352       -0.00449        0.02400
C         -0.74395        1.02090       -0.01126
C         -0.13442       -0.28884       -0.00030
C          0.08073        2.17601       -0.02390
C          1.28957       -0.39031       -0.00379
C         -0.96787       -1.43981        0.02543
C         -2.34993       -1.29622        0.03664
H         -0.50656       -2.43993        0.04279
H         -3.02442       -2.16363        0.05737
H         -3.98975        0.14972        0.03511
C          1.46687        2.03221       -0.01977
H         -0.35006        3.18462       -0.02997
C          2.07881        0.75051       -0.00713
H          1.74457       -1.39283       -0.00089
H          2.09758        2.93451       -0.02573
H          3.17591        0.66743        0.00302
