5
BROMOTRICHLOROMETHANE.gamout	Energy:   -3992.4626288
C          0.98902        0.84559       -0.01210
Cl         0.11588        2.40802       -0.00409
Cl         2.75477        1.13823       -0.00364
Br         0.49359       -0.18501        1.60577
Cl         0.53727       -0.09352       -1.46720
