12
BROMOBENZENE.gamout	Energy:   -2805.5947964
Br        -1.64043       -0.00000       -0.00017
C          0.27248        0.00000        0.00002
C          0.96140        1.22548        0.00051
C          2.36790        1.21584        0.00024
C          3.07384       -0.00000       -0.00065
C          2.36789       -1.21584       -0.00098
C          0.96140       -1.22547        0.00203
H          0.40536        2.17481        0.00081
H          2.91243        2.17355        0.00075
H          4.17505       -0.00000       -0.00118
H          2.91242       -2.17356       -0.00184
H          0.40536       -2.17480        0.00165
