5
BROMOTRIFLUOROMETHANE.gamout	Energy:   -2911.4906142
Br        -1.08394       -0.00000        0.00020
C          0.87966        0.00000       -0.00052
F          1.33322        0.00000        1.25605
F          1.33466       -1.08791       -0.62827
F          1.33466        1.08791       -0.62827
