6
BROMOCHLOROACETONITRILE.gamout	Energy:   -3165.6449544
Br        -1.46355        1.47846       -0.20517
Cl        -1.11206       -1.64255       -0.20705
N          2.08947        0.15559       -0.16500
C         -0.45742       -0.09999        0.43676
C          0.95096        0.04451        0.09142
H         -0.59633       -0.10894        1.53392
