8
BROMOETHANE.gamout	Energy:   -2653.2813703
C         -0.10913       -0.25895       -0.00361
C          1.40392       -0.11979       -0.00358
Br         1.98028        1.77598       -0.00360
H         -0.37811       -1.33807       -0.00299
H         -0.55992        0.20891       -0.90163
H         -0.56001        0.20993        0.89383
H          1.87057       -0.56317       -0.90381
H          1.87053       -0.56316        0.89667
