15
BTI-1.gamout	Energy:   -1826.2972704
F         -2.09075        1.48841        3.76996
F         -1.29126        3.18540        2.65303
F         -3.44330        2.81037        2.68294
C         -2.22696        2.21453        2.64866
S         -2.12472        1.13172        1.07514
O         -2.85030       -0.10627        1.45899
O         -2.68993        2.02000        0.03168
O          1.85339        0.30136        1.20659
O          0.09514       -0.43659        2.92959
S          0.45631       -0.07076        1.53390
N         -0.52286        0.99603        0.77339
F          1.20370       -2.56726        0.93156
F         -0.95752       -2.27610        0.83445
F          0.31983       -1.50842       -0.76190
C          0.22613       -1.70133        0.57052
