31
BUTABARBITAL.gamout	Energy:    -725.4210418
O         -0.65742       -2.21579       -1.23900
O          0.20418        0.78173        2.28097
O         -3.37206        1.38168       -0.49426
N         -1.89812       -0.32735       -0.96198
N         -1.46631        1.16607        0.78433
C          0.30140       -0.48644        0.19455
C          1.23970        0.38323       -0.78535
C          1.08982       -1.58728        0.94289
C          2.35754        1.13766       -0.02172
C         -0.77434       -1.12307       -0.70343
C         -0.30447        0.50537        1.20379
C          1.82668       -0.44774       -1.94158
C          0.24298       -2.45754        1.88120
C          3.04283        2.23365       -0.85074
C         -2.32873        0.79833       -0.25285
H          0.56460        1.15235       -1.22826
H          1.89256       -1.09069        1.52288
H          1.57519       -2.23252        0.18364
H          3.12066        0.40451        0.32189
H          1.94489        1.59130        0.90191
H          2.56866       -1.18493       -1.57179
H          2.35382        0.22544       -2.64698
H          1.05973       -1.00145       -2.51538
H         -0.22910       -1.85611        2.68504
H         -0.55162       -2.99908        1.32849
H          0.87767       -3.22164        2.37522
H          3.77363        2.79211       -0.23028
H          2.30814        2.97087       -1.24053
H          3.59925        1.82666       -1.72029
H         -2.57187       -0.69969       -1.64084
H         -1.81931        1.90309        1.40528
