13
BUTAN-2-ONE.gamout	Energy:    -232.2932879
C          1.96862        2.04535        2.67698
C          0.47816        2.33781        2.84357
C          2.34741        1.54142        1.28165
C          3.82105        1.22866        1.04860
O          1.51214        1.39696        0.40088
H          2.59014        2.94694        2.88683
H          2.32275        1.28712        3.41403
H         -0.12709        1.42947        2.65208
H          0.25378        2.69913        3.86754
H          0.14176        3.10774        2.12060
H          3.97003        0.87545        0.01127
H          4.44539        2.12991        1.22909
H          4.17313        0.45184        1.76091
