31
BUTOBARBITAL.gamout	Energy:    -725.4263836
O          0.05473       -0.92512       -2.26568
O          0.21185        1.40796        1.90891
O          3.09311       -2.01781        0.97879
N          1.58356       -1.40720       -0.65005
N          1.71018       -0.21568        1.36183
C          0.14385        0.62006       -0.39224
C         -1.39794        0.77433       -0.41418
C          0.85016        1.81182       -1.15467
C         -2.17746       -0.41945        0.15705
C          0.54976       -0.63527       -1.18667
C          0.64880        0.64434        1.05913
C         -3.69895       -0.19657        0.15027
C          0.47753        3.22501       -0.69554
C          2.20744       -1.27345        0.59418
C         -4.49468       -1.39504        0.68213
H         -1.70171        0.95147       -1.46725
H         -1.64709        1.68430        0.16828
H          0.59382        1.67569       -2.22731
H          1.95075        1.66667       -1.07715
H         -1.94449       -1.33522       -0.43106
H         -1.84652       -0.62154        1.20163
H         -4.02501        0.03959       -0.88815
H         -3.93912        0.70922        0.75212
H         -0.58443        3.46169       -0.90687
H          0.64797        3.37123        0.38982
H          1.09495        3.96595       -1.24426
H          1.89470       -2.20863       -1.21076
H          2.09309       -0.15121        2.31204
H         -4.21586       -1.63171        1.73131
H         -4.30618       -2.30629        0.07525
H         -5.58704       -1.20089        0.66319
