22
BUTOXYETHANOL.gamout	Energy:    -387.1992465
O         -0.64512        0.11108       -0.09556
O         -4.15700        0.91639       -0.19642
C          1.73155       -0.18803       -0.02609
C          3.11947        0.46748        0.02659
C          0.58239        0.81700       -0.04824
C          4.26675       -0.55127        0.04878
C         -1.78256        0.94742       -0.12135
C         -3.02424        0.06237       -0.16971
H          1.64676       -0.83488       -0.92763
H          1.59187       -0.85929        0.85053
H          3.18571        1.12040        0.92658
H          3.24172        1.14586       -0.84836
H          0.62284        1.47450        0.85940
H          0.67882        1.49835       -0.93372
H         -1.83288        1.60626        0.78298
H         -1.77725        1.62606       -1.01257
H          4.19241       -1.22090        0.93195
H          4.25055       -1.19526       -0.85628
H          5.25718       -0.05241        0.08778
H         -3.01111       -0.61237        0.72253
H         -2.95434       -0.59333       -1.07331
H         -4.94988        0.35265       -0.22721
