26
BUTYL_NICOTINATE.gamout	Energy:    -593.6719036
O          0.84982        0.06040        0.00123
O         -0.06522        2.14188       -0.00376
N         -2.82700       -1.82244        0.00347
C          3.19990       -0.46480        0.00349
C          4.64409        0.06262        0.00457
C          2.16909        0.65554        0.00197
C          5.69458       -1.05438        0.00575
C         -0.19345        0.92731       -0.00129
C         -1.51524        0.22195       -0.00073
C         -2.69233        0.99786       -0.00356
C         -1.64414       -1.18607        0.00271
C         -3.92950        0.34199       -0.00287
C         -3.94001       -1.06648        0.00070
H          3.03391       -1.11233       -0.88633
H          3.03230       -1.11154        0.89358
H          4.79470        0.71953        0.89138
H          4.79616        0.71891       -0.88247
H          2.26633        1.31309        0.89354
H          2.26780        1.31210       -0.89017
H          5.59110       -1.70494        0.90018
H          5.59248       -1.70535       -0.88855
H          6.72550       -0.64467        0.00643
H         -2.60690        2.09584       -0.00622
H         -0.73869       -1.81703        0.00503
H         -4.87480        0.90687       -0.00502
H         -4.90158       -1.61288        0.00136
