27
BUTYLCYCLOPENTANE.gamout	Energy:    -353.5357693
C         -1.27416        0.37181        0.49178
C         -0.98773       -0.92869       -0.32605
C          0.48881       -0.81937       -0.79032
C          1.14507        0.18294        0.18843
C          0.01602        1.21663        0.38637
H         -2.16301        0.92256        0.11984
H         -1.48370        0.12247        1.55365
H         -1.12993       -1.82690        0.31060
H         -1.68007       -1.04537       -1.18534
H          1.00042       -1.80381       -0.82078
H          0.54454       -0.39781       -1.82021
H          1.30097       -0.34119        1.16345
C          2.48707        0.77972       -0.25926
H         -0.02739        1.87473       -0.51184
H          0.17880        1.87985        1.26238
H          2.34252        1.28853       -1.24202
C          3.64171       -0.22798       -0.37238
H          2.77863        1.58449        0.45432
H          3.37451       -1.02513       -1.10318
H          3.76994       -0.74945        0.60509
C          4.97830        0.40679       -0.78835
H          5.24894        1.20108       -0.05539
H          4.84337        0.93412       -1.76058
C          6.12934       -0.59938       -0.90804
H          5.90292       -1.38423       -1.66146
H          6.32049       -1.11550        0.05744
H          7.07543       -0.10677       -1.21487
