29
BUTYL_4-AMINOBENZOATE.gamout	Energy:    -632.9711335
O          1.26362        0.07389        0.07011
O          0.49209        2.21033        0.17851
N         -5.00637       -1.17656       -0.00716
C          3.57911       -0.57832        0.03535
C          5.04853       -0.12853        0.04488
C          2.60757        0.59405        0.08636
C          6.04439       -1.29342       -0.00110
C         -1.08636        0.39536        0.08539
C          0.26678        1.00853        0.11717
C         -2.21245        1.25041        0.12944
C         -1.30458       -1.00052        0.01096
C         -3.73220       -0.66582        0.02332
C         -3.50927        0.73819        0.09956
C         -2.59835       -1.52489       -0.02032
H          3.37251       -1.18035       -0.87801
H          3.38176       -1.25101        0.90008
H          5.23764        0.48623        0.95461
H          5.22887        0.55371       -0.81701
H          2.75003        1.21139        1.00138
H          2.74423        1.28173       -0.77781
H          5.91448       -1.96958        0.87085
H          5.91019       -1.90851       -0.91673
H          7.09371       -0.93294        0.00863
H         -2.03649        2.33587        0.18699
H         -0.43821       -1.67705       -0.02382
H         -4.37354        1.42196        0.13459
H         -2.74877       -2.61563       -0.07925
H         -5.16759       -2.17926       -0.06217
H         -5.81745       -0.56364        0.02345
