21
CAFFEIC_ACID.gamout	Energy:    -648.2057074
C          1.32106       -0.57431        0.27196
C          0.63794        0.60477        0.24590
C         -0.79914        0.79569        0.06524
C          2.77914       -0.69040        0.45785
C         -1.70712       -0.28415       -0.11232
C         -1.32697        2.10890        0.06313
O          3.41407        0.51374        0.60804
O          3.38946       -1.75138        0.47943
C         -3.07885       -0.07685       -0.28510
C         -2.70134        2.33107       -0.10936
O         -3.98481       -1.07865       -0.45864
C         -3.59226        1.25796       -0.28441
O         -4.93209        1.40402       -0.45606
H          0.81988       -1.54750        0.15192
H          1.22579        1.53031        0.37350
H         -1.33348       -1.32205       -0.11645
H         -0.64975        2.96664        0.19804
H          4.36221        0.28574        0.72032
H         -3.10126        3.35970       -0.10971
H         -3.50904       -1.93097       -0.43938
H         -5.14435        2.35704       -0.43471
