26
CAMPHENE.gamout	Energy:    -390.3798536
C          0.74402       -0.96820       -0.10064
C          1.79899       -1.97628       -0.61783
C          1.40584        0.42298       -0.02346
C          0.12614       -1.46960        1.25768
C         -0.52084       -0.97134       -0.99902
C         -0.92573       -2.49957        0.76994
C         -0.80080       -0.39046        1.87475
C         -0.59323       -0.59020       -2.28789
C         -1.66477       -1.48354       -0.13755
C         -2.02047       -0.36541        0.89292
H          2.69251       -1.97760        0.04296
H          2.13117       -1.70084       -1.64027
H          1.40734       -3.01205       -0.66692
H          1.85870        0.69068       -1.00091
H          2.21973        0.43654        0.73376
H          0.68376        1.22443        0.22946
H          0.89494       -1.85287        1.96020
H         -1.56125       -2.89584        1.59028
H         -0.49523       -3.35592        0.21324
H         -0.31124        0.59690        1.98704
H         -1.11376       -0.70494        2.89225
H         -1.54155       -0.63794       -2.84906
H          0.28783       -0.21740       -2.83733
H         -2.53433       -1.85504       -0.71489
H         -2.16742        0.61653        0.39901
H         -2.96685       -0.61523        1.41774
