6
CARBONIC_ACID.gamout	Energy:    -264.8184762
O         -0.88113       -1.10961        0.43683
O         -1.14955        1.06347        0.48775
O          0.83208        0.22236       -0.27535
C         -0.28877        0.07347        0.17220
H         -0.21949       -1.78860        0.19233
H         -0.67442        1.89361        0.27866
