25
CARVACROL.gamout	Energy:    -464.3844067
C         -3.62818        0.86995        0.27636
C         -2.34929        0.07492        0.14230
H         -4.37099        0.36802        0.93872
H         -4.12227        1.04011       -0.70824
H         -3.43609        1.87003        0.71249
C         -1.10133        0.56665        0.57441
C         -2.37694       -1.21751       -0.44191
C          0.07808       -0.18257        0.44031
H         -1.05932        1.56931        1.03225
C         -1.19431       -1.96998       -0.58172
C          0.04593       -1.46876       -0.14519
H          1.02969        0.24338        0.79515
C          1.30611       -2.32486       -0.27011
C          2.47226       -1.57397       -0.94348
H          2.16116       -1.12795       -1.91037
H          3.32310       -2.26037       -1.13873
H          2.85431       -0.75245       -0.30074
C          1.72580       -2.89576        1.10214
H          1.04212       -3.18866       -0.92049
H          2.59849       -3.57618        1.00153
H          0.89910       -3.46773        1.57160
H          2.00838       -2.08091        1.80231
H         -1.26768       -2.96684       -1.04564
O         -3.53969       -1.78223       -0.89194
H         -4.26827       -1.14993       -0.74184
