8
CF3SO3-1.gamout	Energy:    -961.0026919
C          1.01966       -0.06236        0.02980
F          0.58912       -0.60729        1.20026
F          0.59403        1.23050        0.02115
F          2.37911       -0.02509        0.09367
S          0.39210       -1.03583       -1.48794
O         -1.09261       -0.92811       -1.32894
O          0.97691       -2.39296       -1.24910
O          0.98568       -0.26105       -2.62300
