9
CH3SO4-1.gamout	Energy:    -738.6626118
C         -3.84578        1.53678        0.48171
O         -2.71197        2.08182       -0.14456
H         -3.85964        0.44093        0.27288
H         -4.79748        1.98302        0.09816
H         -3.82987        1.68631        1.59066
S         -2.56354        3.81954        0.11538
O         -1.31194        4.08770       -0.64189
O         -3.82110        4.37414       -0.47930
O         -2.46938        3.94427        1.60506
