5
CHLOROBROMODIFLUOROMETHANE.gamout	Energy:   -3271.8121245
Br        -0.01102       19.96979       -0.00001
C          1.96004       20.00235        0.00019
Cl         2.57866       21.67947       -0.00019
F          2.40526       19.36058        1.08590
F          2.40547       19.36003       -1.08513
