5
CHLORODIFLUOROMETHANE.gamout	Energy:    -698.3001174
Cl         1.71106        1.50948        0.00350
C          0.15809        0.60057       -0.00465
F         -0.87392        1.46455       -0.01437
F          0.08628       -0.16705       -1.10799
H          0.11987       -0.03297        0.90748
