12
CHLOROBENZENE.gamout	Energy:    -691.5764818
C         -0.24707        1.22453        0.00000
C         -0.93902        0.00000        0.00000
C          1.15846        1.21552       -0.00000
C          1.86542       -0.00000       -0.00000
C          1.15846       -1.21552       -0.00000
C         -0.24707       -1.22453        0.00000
Cl        -2.69372       -0.00000       -0.00000
H         -0.80932        2.16996        0.00000
H          1.70290        2.17330       -0.00000
H          2.96650       -0.00000        0.00000
H          1.70289       -2.17330       -0.00000
H         -0.80932       -2.16996        0.00000
