5
CHLOROTRIFLUOROMETHANE.gamout	Energy:    -797.4752701
Cl        -1.43074       -0.00000        0.00008
C          0.35553       -0.00000       -0.00008
F          0.81482        0.00000        1.25593
F          0.81506       -1.08770       -0.62801
F          0.81506        1.08770       -0.62801
