8
CHLOROACETIC_ACID.gamout	Energy:    -688.3994570
Cl         1.21580        1.33104        0.21556
O         -2.38378       -0.41937       -0.04384
O         -0.32048       -1.26878        0.16717
C         -0.55378        1.16597        0.06457
C         -1.02651       -0.29880        0.07199
H         -0.86980        1.65462       -0.88172
H         -1.02882        1.71384        0.90605
H         -2.80391        0.46301       -0.11076
