19
CHLOROXYLENOL.gamout	Energy:    -845.3215536
Cl         2.82962        0.00738        0.00001
O         -3.09726        0.02542       -0.00018
C          0.37389        1.23103       -0.00019
C          0.39565       -1.25101        0.00008
C          1.06368       -0.00580       -0.00003
C         -1.03309        1.19873       -0.00022
C         -1.01478       -1.23574        0.00001
C         -1.73164       -0.02391       -0.00012
C          1.11532        2.54515       -0.00029
C          1.15426       -2.55525        0.00021
H         -1.61118        2.13552       -0.00032
H         -1.55974       -2.19580        0.00011
H          1.77608        2.63369        0.88794
H          1.77618        2.63351       -0.88847
H          0.41082        3.39954       -0.00041
H          1.81640       -2.63502       -0.88782
H          1.81640       -2.63485        0.88827
H          0.46298       -3.42076        0.00029
H         -3.44060       -0.88831       -0.00004
