8
CHLOROPENTAFLUOROETHANE.gamout	Energy:   -1035.0820124
C         20.98135       18.99648       -0.00014
C         22.54524       18.99159        0.00016
Cl        23.17747       17.31969       -0.00009
F         22.98044       19.64535        1.09373
F         22.98082       19.64578       -1.09302
F         20.54546       20.26998        0.00001
F         20.51148       18.37888       -1.09493
F         20.51106       18.37846        1.09424
