18
CHLOROCYCLOHEXANE.gamout	Energy:    -695.1993812
Cl         0.15025       -0.25377       -2.00328
C         -0.28718       -0.27243       -0.22399
C         -1.16975       -1.48534        0.08788
C         -0.96217        1.04560        0.16736
C         -1.56750       -1.49854        1.57812
C         -1.35929        1.02949        1.65785
C         -2.24647       -0.18219        1.99385
H          0.68666       -0.36967        0.30200
H         -0.64259       -2.42006       -0.19509
H         -2.08128       -1.42473       -0.54816
H         -1.86904        1.17655       -0.46455
H         -0.28759        1.89782       -0.05787
H         -0.65599       -1.65556        2.19986
H         -2.23101       -2.36702        1.77840
H         -1.87203        1.98029        1.91737
H         -0.43791        0.99321        2.28396
H         -3.21795       -0.08454        1.45673
H         -2.48979       -0.19639        3.07806
