12
CHLOROPENTAFLUOROBENZENE.gamout	Energy:   -1187.3430386
C          6.33746        1.86588       -0.67258
C          6.87660        0.60962       -0.33699
C          4.94161        2.04161       -0.72144
F          7.14976        2.89010       -0.94408
F          4.43148        3.23531       -1.04008
C          4.08652        0.96129       -0.43486
C          4.62118       -0.29948       -0.09837
F          2.76573        1.14659       -0.48565
C          6.02019       -0.46977       -0.05076
Cl         3.56877       -1.62662        0.25391
F          6.54960       -1.65326        0.26596
F          8.20229        0.44458       -0.29049
