10
CHLOROPENTAFLUOROACETONE.gamout	Energy:   -1148.3101413
C          1.00298        0.01085       -0.04055
C          0.34697       -0.91640        1.04044
O         -0.38214       -0.46642        1.88557
C          0.69582       -2.44222        0.92376
F          0.35421        1.17924       -0.09205
F          0.96926       -0.56316       -1.26031
F          2.28988        0.24047        0.29570
F         -0.06514       -2.96802       -0.06463
F          1.99399       -2.58965        0.57641
Cl         0.37703       -3.28901        2.45613
