79
CHOLESTERYL_ACETATE.gamout	Energy:   -1283.5125866
O          6.59029       -0.22865       -1.03383
O          6.87895        1.82387       -0.08270
C         -2.06870       -1.59953        0.09548
C         -1.17581       -0.68152        0.98731
C          0.32079       -1.03495        1.02069
C          0.88353       -1.03219       -0.42776
C         -3.46415       -0.91664        0.33310
C         -1.49489       -1.51262       -1.33764
C          2.41422       -1.38692       -0.50088
C         -1.95486       -0.55937        2.30789
C          0.00394       -1.87933       -1.37620
C         -3.44374       -0.55466        1.85732
C          1.09975       -0.03934        1.89901
C         -4.76286       -1.64707       -0.09448
C         -2.09009       -3.06457        0.58795
C          3.18956       -0.66268        0.61281
C          2.96758       -0.88709       -1.87542
C          2.58235       -0.06062        1.66101
C          2.65399       -2.91475       -0.36021
C          4.70297       -0.63859        0.48481
C          4.49839       -0.91510       -2.01357
C         -6.03788       -0.84386        0.29085
C          5.14701       -0.11301       -0.88917
C         -4.79551       -2.03469       -1.58497
C         -6.18677        0.55266       -0.33758
C         -7.50970        1.23899        0.04762
C         -7.72835        2.67450       -0.49374
C          7.34183        0.81886       -0.59107
C         -7.78475        2.72650       -2.03123
C         -6.70580        3.68148        0.06346
C          8.82035        0.56464       -0.81472
H         -1.22832        0.32373        0.49857
H          0.45158       -2.05447        1.45280
H          0.80398        0.02761       -0.77343
H         -3.42015        0.03719       -0.24357
H         -1.63272       -0.47395       -1.71724
H         -2.04419       -2.17620       -2.03753
H         -1.73849       -1.42619        2.96994
H         -1.68090        0.35007        2.88027
H          0.37283       -1.78480       -2.42000
H          0.10804       -2.95477       -1.11808
H         -4.03886       -1.28835        2.44261
H         -3.91918        0.43227        2.03178
H          0.88748       -0.22350        2.97598
H          0.71818        0.99567        1.71165
H         -4.82016       -2.59281        0.49410
H         -2.53336       -3.16193        1.59992
H         -1.07597       -3.51014        0.63288
H         -2.69172       -3.70028       -0.09509
H          2.51461       -1.48185       -2.69696
H          2.62196        0.16113       -2.02266
H          3.21487        0.46338        2.40096
H          2.18670       -3.30874        0.56585
H          3.73443       -3.15424       -0.30321
H          2.24094       -3.47582       -1.22355
H          5.14014       -0.01044        1.28698
H          5.12663       -1.66356        0.59728
H          4.79890       -0.49482       -2.99719
H          4.88809       -1.95653       -1.98464
H         -6.92410       -1.45755        0.00781
H         -6.09348       -0.74495        1.39764
H          4.88010        0.96317       -0.96675
H         -4.61633       -1.16128       -2.24729
H         -5.78334       -2.46341       -1.85816
H         -4.02933       -2.79498       -1.83432
H         -6.11664        0.47421       -1.44488
H         -5.33273        1.19333       -0.02499
H         -7.58897        1.26572        1.15916
H         -8.35623        0.60007       -0.29503
H         -8.73051        2.98854       -0.11961
H         -8.53612        2.01549       -2.43622
H         -8.05751        3.74182       -2.38862
H         -6.80408        2.47286       -2.48875
H         -5.67518        3.46280       -0.29022
H         -6.94668        4.71682       -0.25764
H         -6.68629        3.67124        1.17416
H          9.23812        1.38786       -1.42851
H          9.00766       -0.40711       -1.30614
H          9.34032        0.59730        0.16427
