21
CHOLINE+1.gamout	Energy:    -328.4253235
C         -7.29255        0.08291        1.45042
N         -5.90584        0.25418        0.88822
H         -7.69651        1.06940        1.73556
H         -7.24038       -0.56837        2.34210
H         -7.93722       -0.38251        0.68290
C         -5.01799        0.90438        1.91693
C         -5.93965        1.07265       -0.39095
H         -4.96543        0.24957        2.80549
H         -5.43831        1.88398        2.20291
H         -4.00916        1.03817        1.48635
H         -4.90205        1.11697       -0.77543
C         -6.49050        2.50214       -0.29404
H         -6.54658        0.50595       -1.12361
C         -5.34224       -1.10573        0.56026
H         -5.31314       -1.71212        1.48339
H         -4.32167       -0.98354        0.15550
H         -5.98763       -1.59349       -0.19215
H         -5.89837        3.10943        0.43406
H         -7.55122        2.49965        0.05805
O         -6.36061        2.96935       -1.61428
H         -6.70166        3.88226       -1.67127
