74
CHOLESTEROL.gamout	Energy:   -1130.9550701
O          7.62799        1.26995       -0.20244
C         -0.86722       -1.09045       -0.27556
C         -0.13906       -0.44279        0.94169
C          1.39111       -0.59468        0.93992
C          1.98533       -0.01808       -0.37552
C         -2.36033       -0.77500        0.09888
C         -0.30923       -0.39075       -1.53567
C          3.54257       -0.20732       -0.47019
C         -0.93639       -0.92934        2.16422
C          1.22536       -0.51853       -1.62828
C         -2.40325       -1.00240        1.64902
C          2.02712        0.10222        2.15681
C         -3.49827       -1.51537       -0.65274
C         -0.64463       -2.61898       -0.35656
C          4.21042        0.14707        0.87080
C          4.09940        0.77304       -1.55367
C          3.51139        0.29605        2.01968
C          3.91803       -1.66842       -0.83851
C          5.71825        0.31390        0.85595
C          5.63128        0.88292       -1.59012
C         -4.90259       -1.19462       -0.07176
C          6.20195        1.28891       -0.22487
C         -3.47681       -1.29657       -2.17796
C         -5.39803        0.25584       -0.21244
C         -6.80401        0.45058        0.38091
C         -7.43277        1.86049        0.24303
C         -7.70230        2.24980       -1.22247
C         -6.62114        2.94865        0.96980
H         -0.33497        0.65391        0.84421
H          1.64290       -1.67922        0.99935
H          1.81804        1.08575       -0.31762
H         -2.49096        0.31690       -0.09007
H         -0.59440        0.68579       -1.49656
H         -0.75839       -0.79792       -2.46533
H         -0.82682       -0.25911        3.04095
H         -0.57422       -1.93099        2.48309
H          1.48153       -1.58216       -1.81905
H          1.57488        0.03682       -2.52492
H         -2.85819       -1.98855        1.88502
H         -3.04601       -0.24432        2.14196
H          1.81080       -0.47294        3.08512
H          1.53578        1.09462        2.31423
H         -3.34909       -2.60576       -0.47331
H         -1.11242       -3.03522       -1.27327
H          0.42970       -2.88688       -0.39035
H         -1.08660       -3.15473        0.50837
H          3.67341        1.78254       -1.35165
H          3.72361        0.47304       -2.55485
H          4.06394        0.57756        2.93531
H          3.61337       -1.92426       -1.87454
H          5.01049       -1.84076       -0.77121
H          3.43545       -2.39108       -0.14851
H          6.08416        0.64781        1.84874
H          6.22087       -0.66004        0.64824
H          6.09929       -0.08201       -1.88692
H          5.93306        1.62647       -2.36302
H         -5.63739       -1.86755       -0.57140
H         -4.93085       -1.48118        1.00272
H          5.81673        2.31095        0.03057
H         -3.47304       -0.21796       -2.44202
H         -4.37063       -1.75491       -2.65296
H         -2.58627       -1.75542       -2.65096
H         -4.68296        0.94764        0.28605
H         -5.40199        0.54615       -1.28621
H          7.93629        1.90047       -0.88020
H         -6.77528        0.18107        1.46209
H         -7.49417       -0.28802       -0.08909
H         -8.42352        1.79753        0.75104
H         -8.30127        1.47437       -1.74575
H         -8.26376        3.20593       -1.28514
H         -6.75862        2.38684       -1.79243
H         -6.42952        2.67557        2.02934
H         -7.16069        3.91921        0.96511
H         -5.63674        3.11923        0.48361
