22
CHOLINE-CHLORIDE.gamout	Energy:    -788.7464680
C         -7.05296       -0.33173        1.26895
N         -5.84586        0.47819        0.93142
H         -7.91624        0.34687        1.39605
H         -6.87183       -0.88451        2.20987
H         -7.25650       -1.04256        0.44685
C         -5.44449        1.33082        2.11143
C         -6.09424        1.31719       -0.33573
H         -5.07110        0.65469        2.90352
H         -6.32539        1.88615        2.47560
H         -4.64472        2.02436        1.73672
H         -5.06750        1.55832       -0.69432
C         -6.78763        2.69641       -0.18973
H         -6.61660        0.64087       -1.04168
C         -4.67401       -0.41314        0.61352
H         -4.48611       -1.08568        1.47102
H         -3.81217        0.26459        0.42236
H         -4.91399       -1.00141       -0.29089
H         -6.71640        3.05630        0.86627
H         -7.87303        2.62834       -0.42671
O         -6.20030        3.58429       -1.09770
H         -5.22594        3.60681       -0.83869
Cl        -3.36818        2.87591        0.01732
