86
CHOLESTERYL_BENZOATE.gamout	Energy:   -1475.1175141
O          5.73609        0.39704        0.22873
O          6.24215       -1.57841        1.24770
C         -3.07567        0.29349       -0.35584
C         -2.19142       -0.98467       -0.21378
C         -0.73399       -0.82710       -0.67555
C         -0.05898        0.34310        0.09252
C         -4.45108       -0.26210        0.16708
C         -2.40006        1.38383        0.50699
C          1.42381        0.59923       -0.36697
C         -3.05129       -2.10762       -0.81621
C         -0.93437        1.61849        0.08773
C         -4.50178       -1.72098       -0.40967
C          0.06430       -2.12653       -0.46647
C         -5.75012        0.54526       -0.10682
C         -3.21034        0.75269       -1.82611
C          2.17888       -0.73203       -0.51794
C          2.14530        1.43672        0.73802
C          1.55228       -1.93108       -0.53948
C          1.47364        1.36268       -1.71935
C          3.69078       -0.64998       -0.64779
C          3.66622        1.56883        0.55872
C         -6.98107       -0.19607        0.47581
C          4.31811        0.19187        0.47485
C         -5.69006        1.99229        0.41508
C         -8.35526        0.38068        0.09108
C         -9.52685       -0.46533        0.61583
C        -10.93454       -0.03073        0.14999
C          6.59640       -0.55778        0.67652
C        -11.99489       -1.04625        0.60991
C        -11.30331        1.38954        0.61434
C          8.02503       -0.20429        0.38689
C          9.02650       -1.11008        0.80016
C          8.39047        0.99012       -0.27317
C         10.37789       -0.82475        0.55698
C          9.74412        1.27167       -0.51477
C         10.73836        0.36658       -0.10076
H         -2.14166       -1.17706        0.88733
H         -0.72130       -0.59230       -1.76564
H          0.00846       -0.00049        1.15390
H         -4.34779       -0.33643        1.27631
H         -2.43861        1.06416        1.57377
H         -2.94640        2.34809        0.45319
H         -2.76277       -3.11434       -0.45091
H         -2.93636       -2.12870       -1.92201
H         -0.48668        2.38480        0.75603
H         -0.93026        2.07046       -0.92694
H         -4.90934       -2.42779        0.34136
H         -5.18670       -1.77234       -1.28329
H         -0.19969       -2.57007        0.52604
H         -0.24649       -2.89536       -1.20907
H         -5.89185        0.58564       -1.21346
H         -3.74249        0.00532       -2.44955
H         -3.78501        1.69988       -1.89430
H         -2.22935        0.93541       -2.30837
H          1.69689        2.45161        0.78899
H          1.94409        0.95616        1.72170
H          2.17249       -2.84324       -0.61492
H          1.06598        2.38958       -1.62049
H          2.50983        1.45989       -2.10003
H          0.89122        0.83236       -2.50068
H          3.97538       -0.17753       -1.61665
H          4.12679       -1.66888       -0.63925
H          3.91090        2.13689       -0.36564
H          4.10328        2.14089        1.40463
H         -6.95652       -1.25747        0.14692
H         -6.89097       -0.22633        1.58759
H          4.21464       -0.35573        1.43690
H         -4.89769        2.58632       -0.08027
H         -6.64572        2.52587        0.23684
H         -5.49244        2.01498        1.50909
H         -8.42265        0.45216       -1.01995
H         -8.45025        1.42212        0.46641
H         -9.36479       -1.52428        0.30772
H         -9.50435       -0.47662        1.73164
H        -10.92816       -0.03038       -0.96655
H        -11.76075       -2.07203        0.25451
H        -13.00515       -0.78076        0.23334
H        -12.05311       -1.08459        1.72020
H        -10.59705        2.15438        0.23075
H        -11.30112        1.45651        1.72487
H        -12.31878        1.67428        0.26661
H          8.71277       -2.03270        1.31228
H          7.60327        1.68931       -0.58903
H         11.15706       -1.53301        0.88033
H         10.02695        2.20367       -1.02952
H         11.80014        0.59081       -0.29153
