35
CIANIDANOL.gamout	Energy:   -1030.6148779
O          0.43460        0.65882       -0.15421
O         -0.70648       -2.81708       -0.25575
O          4.40465       -2.01102        0.14312
O          4.70436        2.76998        0.30019
O         -4.12685        1.73295        1.75940
O         -5.88585        0.66226        0.07177
C          0.10998       -1.74113        0.18363
C         -0.32757       -0.47822       -0.59650
C          1.59637       -2.01137       -0.08680
C          2.41366       -0.74523       -0.00858
C          1.79009        0.51727       -0.03994
C         -1.79507       -0.14397       -0.45423
C          3.82300       -0.77227        0.11972
C          2.52912        1.71332        0.06537
C         -2.26128        0.67109        0.59797
C         -2.72894       -0.68962       -1.34775
C          4.58091        0.40490        0.22255
C          3.92544        1.65213        0.19905
C         -3.62768        0.94114        0.76498
C         -4.09935       -0.43514       -1.18329
C         -4.56825        0.37316       -0.13667
H         -0.04993       -1.52306        1.26947
H         -0.10804       -0.66613       -1.67464
H          1.67127       -2.48107       -1.09481
H          1.99308       -2.76062        0.63136
H          1.98992        2.67105        0.02900
H         -1.53615        1.12299        1.29415
H         -0.49598       -3.58996        0.29983
H         -2.38903       -1.32693       -2.17590
H          5.67684        0.37659        0.31916
H         -4.82904       -0.86767       -1.88879
H          5.36538       -1.89386        0.26700
H          4.12157        3.55173        0.26225
H         -3.37798        2.04548        2.30082
H         -6.40359        0.21425       -0.62333
