19
CINNAMIC_ACID.gamout	Energy:    -497.8673509
C          1.55317        0.91501        2.32587
C          2.83790        0.53091        2.55608
C          3.98047        1.39199        2.88019
C          0.45493       -0.02041        2.00347
C          5.24927        0.79287        3.08821
C          3.87992        2.80319        2.99751
O          0.84664       -1.33043        1.95419
O         -0.70122        0.32031        1.79646
C          6.37520        1.56920        3.40110
C          5.00378        3.57791        3.30945
C          6.25651        2.96530        3.51276
H          1.23406        1.96800        2.36361
H          3.05654       -0.54934        2.49476
H          5.34305       -0.30193        3.00104
H          2.90812        3.29664        2.84244
H          0.02987       -1.82904        1.73377
H          7.35076        1.08263        3.55832
H          4.90576        4.67160        3.39601
H          7.13817        3.57833        3.75794
