27
CIS,CIS-1,3,5-TRIMETHYLCYCLOHEXANE.gamout	Energy:    -353.5494111
C          2.09949        3.62459        2.73086
C          0.81317        4.38381        2.37753
C          3.30477        4.57515        2.88030
C          2.41655        2.52098        1.70109
C          4.61798        3.84120        3.21693
C          3.71303        1.75006        2.01945
C          5.80086        4.81322        3.33897
C          4.89122        2.73256        2.18098
C          4.01224        0.67090        0.96900
H          1.94303        3.12529        3.71797
H          0.56760        5.15310        3.14025
H         -0.05707        3.69766        2.30066
H          0.91247        4.90446        1.39960
H          3.44014        5.13647        1.92399
H          3.08864        5.33977        3.66036
H          1.56245        1.80961        1.63154
H          2.51304        2.98771        0.69066
H          4.47937        3.34511        4.20834
H          3.56482        1.24076        3.00262
H          5.98759        5.33878        2.37666
H          6.73742        4.28440        3.61597
H          5.61120        5.58896        4.11095
H          5.10123        3.20791        1.19225
H          5.81451        2.17652        2.45949
H          4.93028        0.10069        1.22468
H          4.16990        1.12357       -0.03466
H          3.17768       -0.05657        0.87761
