27
CIS,TRANS-1,2,3-TRIMETHYLCYCLOHEXANE.gamout	Energy:    -353.5347637
C          1.79197        1.49308        2.62694
C          2.51910        2.16226        1.44621
C          1.99115        3.59833        1.11639
C          4.06738        2.15558        1.68922
C          0.46124        3.72220        1.16854
C          2.69869        4.64652        1.99811
C          4.71304        0.84908        1.20243
C          4.74763        3.39487        1.07846
C          4.22123        4.70783        1.70083
H          2.25874        0.51611        2.87384
H          0.72225        1.29569        2.41155
H          1.84076        2.11919        3.54457
H          2.31942        1.54218        0.54044
H          2.29025        3.81164        0.06454
H          4.22711        2.21781        2.79312
H          0.13337        4.70332        0.76409
H          0.07153        3.64930        2.20609
H         -0.03641        2.93130        0.56733
H          2.52291        4.39423        3.06864
H          2.23482        5.64558        1.85039
H          5.79052        0.80237        1.46761
H          4.63517        0.75946        0.09672
H          4.22249       -0.04406        1.64422
H          4.58313        3.39345       -0.02312
H          5.84921        3.32740        1.21357
H          4.77854        4.92171        2.63849
H          4.44474        5.55513        1.01697
