27
CIS,TRANS-1,3,5-TRIMETHYLCYCLOHEXANE.gamout	Energy:    -353.5383361
C          2.04942        1.25165        4.03896
C          2.25473        1.12841        5.55524
C          1.40045        2.58829        3.63467
C          3.38140        1.05588        3.26255
C          0.99466        2.61703        2.13662
C          3.40472        1.74891        1.87280
C          0.86822        4.06183        1.62646
C          1.98474        1.77666        1.27623
H          1.34732        0.44189        3.72903
H          2.90618        1.94584        5.93563
H          1.29183        1.18424        6.10671
H          2.73935        0.16553        5.82383
H          2.12170        3.41304        3.84550
H          0.50949        2.79485        4.26748
H          3.57409       -0.03387        3.13500
H          4.22627        1.44482        3.87560
H         -0.00948        2.14256        2.05135
H          0.18734        4.66234        2.26721
H          1.85604        4.57375        1.62463
H          0.47193        4.09807        0.58946
H          2.01105        2.17611        0.23813
H          1.62297        0.72671        1.18866
C          4.42592        1.09474        0.93157
H          3.72210        2.80721        2.02360
H          5.43822        1.06256        1.38854
H          4.13459        0.04750        0.69512
H          4.50985        1.64363       -0.03048
