27
CIS,CIS-1,2,3-TRIMETHYLCYCLOHEXANE.gamout	Energy:    -353.5286347
C          4.11526        1.61203        1.90526
C          3.59502        2.59711        0.82682
C          2.39609        3.43330        1.33560
C          3.79516        2.11442        3.32775
C          2.24328        2.20127        3.56749
C          4.55510        1.32424        4.40394
C          1.46592        2.61773        2.25868
C          1.63799        0.95650        4.24050
H          3.66568        0.60245        1.77009
H          5.21215        1.46855        1.79439
H          4.41075        3.28684        0.51834
H          3.31120        2.03793       -0.09052
H          1.82205        3.83847        0.47340
H          2.76754        4.32063        1.89494
H          4.17904        3.15952        3.38151
H          2.09925        3.04003        4.28664
H          4.33305        1.69628        5.42710
H          4.31093        0.24101        4.38093
H          5.65141        1.41621        4.25051
H          2.07709        0.77918        5.24264
H          0.54402        1.08078        4.38516
H          1.78842        0.03131        3.64484
C          0.79844        1.46359        1.48182
H          0.63803        3.28951        2.58101
H          1.52235        0.69832        1.13215
H          0.03171        0.93694        2.08484
H          0.28385        1.86166        0.58095
