19
CIS-BETA-METHYLSTYRENE.gamout	Energy:    -348.7020516
C          3.31892        2.87903        1.92777
C          3.63056        3.21447        3.27053
C          2.62451        3.59342        4.17388
C          1.96202        2.97498        1.52335
C          4.33666        2.47969        0.93403
C          0.95640        3.34942        2.42662
C          1.28251        3.65582        3.76036
C          5.48323        1.77484        1.11643
C          6.01573        1.15945        2.38093
H          4.67900        3.21294        3.60290
H          2.89501        3.85405        5.20986
H          1.69778        2.73924        0.47917
H          4.10009        2.77522       -0.10465
H         -0.09026        3.40664        2.08702
H          0.49538        3.95481        4.47057
H          6.09666        1.60011        0.21306
H          6.84963        1.75963        2.81220
H          6.43680        0.15237        2.17332
H          5.23907        1.05370        3.16411
