22
CIS-4-METHYLCYCLOHEXANOL.gamout	Energy:    -350.1416368
C          0.14779        0.77865        1.30406
C          1.02719        0.82210        0.04806
C          1.78494        2.16097       -0.08375
C          2.02479       -0.35653        0.00096
C          2.68814        2.20773       -1.32915
C          2.92735       -0.31683       -1.24519
C          3.67958        1.02484       -1.37227
O          4.70371        1.15274       -0.38124
H         -0.59422        1.60523        1.31595
H         -0.41391       -0.17659        1.37692
H          0.76387        0.87344        2.22522
H          0.36451        0.72706       -0.84632
H          1.06538        3.00869       -0.10076
H          2.40315        2.31681        0.83402
H          1.47748       -1.32333        0.04553
H          2.65479       -0.32920        0.92364
H          3.26192        3.15814       -1.36316
H          2.05595        2.17843       -2.24561
H          3.67043       -1.14206       -1.21969
H          2.30504       -0.47031       -2.15605
H          4.22652        1.04542       -2.34000
H          4.26481        1.13896        0.49063
