27
CIS-1-METHYL-3-ETHYLCYCLOHEXANE.gamout	Energy:    -353.5467109
C          3.02856        2.73027        1.43781
C          4.29337        3.44874        0.93631
C          5.47756        2.47949        0.79203
C          3.27490        1.95974        2.75259
C          4.47798        1.00580        2.59171
C          2.02537        1.20432        3.25173
C          5.76039        1.70729        2.09706
C          6.92551        0.71948        1.93748
C          0.85767        2.09514        3.69731
H          2.20206        3.46133        1.56741
H          2.68422        2.00566        0.66168
H          4.08801        3.95444       -0.03222
H          4.56407        4.25665        1.65477
H          5.25261        1.74242       -0.01542
H          6.39197        3.02326        0.46678
H          3.54883        2.71170        3.53378
H          4.20490        0.19905        1.86933
H          4.68127        0.49268        3.55882
H          1.68103        0.51158        2.44882
H          2.32539        0.55022        4.10157
H          6.04859        2.45733        2.87335
H          6.68602       -0.05637        1.17752
H          7.85299        1.23378        1.60798
H          7.14934        0.19402        2.89002
H          1.16367        2.78038        4.51720
H          0.46413        2.72326        2.87072
H          0.01022        1.48514        4.07376
