26
CIS-STILBENE.gamout	Energy:    -540.3032592
C          4.45112        1.17435        4.59789
C          5.68305        1.68102        4.30445
C          6.17962        2.38355        3.10292
C          3.24085        1.03249        3.76239
C          7.54524        2.25074        2.74354
C          5.37152        3.25421        2.32725
C          1.96497        1.08462        4.37964
C          3.29375        0.76507        2.37024
C          8.07422        2.92616        1.63261
C          5.90283        3.93622        1.22322
C          0.78834        0.91640        3.63255
C          2.11854        0.58801        1.62619
C          7.25399        3.77097        0.86474
C          0.85971        0.66979        2.25037
H          4.32977        0.78511        5.62556
H          6.44436        1.56715        5.09811
H          8.19644        1.59724        3.34731
H          4.31810        3.40473        2.60677
H          1.90269        1.26771        5.46504
H          4.27172        0.68121        1.87323
H          9.13624        2.79745        1.36897
H          5.25735        4.61215        0.63956
H         -0.19102        0.97113        4.13426
H          2.18579        0.37457        0.54730
H          7.66812        4.30821       -0.00318
H         -0.06140        0.53000        1.66256
