22
CIS-3-METHYLCYCLOHEXANOL.gamout	Energy:    -350.1370158
C          2.38528        2.68439        0.01559
C          0.85056        2.56739       -0.00695
C          3.05033        1.29633        0.06290
C          0.31142        1.75221        1.18732
C          1.01896        0.38211        1.28987
C          3.19749        0.89363        2.59449
C          2.56917        0.44013        1.26168
O          0.36614        2.49349        2.41177
H          2.73890        3.25111       -0.87224
H          2.70474        3.29227        0.89451
H          0.37308        3.57025        0.00012
H          0.53746        2.06716       -0.95164
H          4.15782        1.39697        0.08958
H          2.80904        0.75883       -0.88238
H         -0.77450        1.56982        1.02966
H          0.66770       -0.12870        2.21234
H          0.67544       -0.24166        0.43318
H          2.78075        0.32774        3.45319
H          4.29735        0.73878        2.59012
H          3.03466        1.97232        2.81100
H          2.92404       -0.60129        1.08821
H          1.29337        2.76653        2.54362
