18
CIS-1,2-DIMETHYLCYCLOBUTANE.gamout	Energy:    -235.6606837
C          0.52203        1.35902       -0.23348
C          0.53731       -0.17099        0.08569
C          2.11087       -0.10130        0.07074
C          2.00643        1.44662        0.22093
C         -0.10407       -0.53195        1.42715
C          2.93941       -0.90156        1.07117
H         -0.21938        1.97594        0.31754
H          0.40530        1.56193       -1.31834
H          0.10289       -0.81936       -0.70721
H          2.45837       -0.33981       -0.95926
H          2.69687        2.06903       -0.38606
H          2.10101        1.76306        1.28191
H         -1.20663       -0.40299        1.38105
H          0.09578       -1.58739        1.70995
H          0.26674        0.11119        2.25425
H          4.01834       -0.65001        0.98323
H          2.84093       -1.99593        0.90333
H          2.63816       -0.69524        2.11995
