12
CIS-CROTONIC_ACID.gamout	Energy:    -306.2496554
O         -2.40397        0.38352       -0.67325
C         -1.33455        0.48318       -0.10920
C         -0.44478       -0.69552        0.14870
O         -0.89628        1.70808        0.32630
C          0.90847       -0.75349        0.08019
C          1.88628        0.34841       -0.21864
H         -1.01051       -1.62987        0.29926
H         -0.09648        1.57682        0.87437
H          1.36175       -1.75145        0.22902
H          1.40415        1.29831       -0.52158
H          2.54246        0.54545        0.65938
H          2.57195        0.03886       -1.03656
