21
CIS-2-HEPTENE.gamout	Energy:    -274.9483720
C          0.64844        4.28319        2.26844
C          1.76866        3.81788        1.33090
C          2.59504        2.65223        1.89824
C          3.72559        2.17644        0.96090
C          4.48048        0.98639        1.49651
C          5.79233        0.90771        1.81520
C          6.83647        1.98284        1.69515
H          1.05217        4.62800        3.24480
H          0.06742        5.12398        1.83487
H         -0.06701        3.45999        2.48126
H          1.33349        3.51420        0.35114
H          2.44704        4.67268        1.10650
H          1.91923        1.79357        2.11882
H          3.03508        2.94871        2.87761
H          4.41552        3.02293        0.75453
H          3.27124        1.90412       -0.02151
H          3.86893        0.07788        1.65749
H          6.15520       -0.06082        2.20787
H          7.66044        1.66823        1.01617
H          6.43212        2.93999        1.30975
H          7.31319        2.18981        2.67922
