24
CIS-1,2-DIMETHYLCYCLOHEXANE.gamout	Energy:    -314.2513510
C          2.48837        1.06084        5.19998
C          2.86625        1.06044        3.71175
C          1.66949        1.38730        2.75114
C          4.06549        1.98154        3.40331
C          2.18843        1.77860        1.33575
C          4.64145        1.71536        1.98774
C          3.56370        1.17624        1.01456
H          3.32732        0.67529        5.81693
H          2.25185        2.08190        5.56724
H          1.60371        0.41951        5.40084
H          3.19201        0.02334        3.46504
H          4.85724        1.85151        4.17257
H          3.73414        3.04120        3.49314
H          2.26685        2.88903        1.27314
H          1.43778        1.48847        0.56920
H          5.48548        0.99407        2.04510
H          5.07432        2.65506        1.58069
H          3.84862        1.40050       -0.03552
H          3.50406        0.06688        1.08016
C          0.71667        2.47390        3.27827
H          1.07922        0.44668        2.65411
H         -0.05860        2.71336        2.51933
H          0.18652        2.16815        4.20308
H          1.26101        3.41853        3.49765
