15
CIS-1,2-DIMETHYLCYCLOPROPANE.gamout	Energy:    -196.3750813
C          3.03845        2.04262        2.50840
C          3.94907        0.86700        2.20248
C          1.62966        2.17352        1.94276
C          1.83381        1.89173        3.42152
C          1.00770        1.14071        1.02025
H          3.58109        3.00075        2.60654
H          3.39157       -0.08986        2.14062
H          4.71704        0.74661        2.99638
H          4.48498        1.00395        1.23834
H          1.32965        3.21005        1.70324
H          1.61259        2.68372        4.15582
H          1.59651        0.87366        3.77688
H         -0.10153        1.19577        1.05428
H          1.29077        0.10512        1.29881
H          1.31638        1.29833       -0.03610
