18
CIS-3-HEXENE.gamout	Energy:    -235.6647158
C          3.15928        3.95237        1.94594
C          2.04416        3.27930        1.58277
C          1.94045        1.89903        0.98329
C          4.59452        3.49860        1.85353
C          1.09718        0.93366        1.83793
C          5.30499        3.47160        3.22075
H          3.02014        4.96249        2.37786
H          1.07425        3.78806        1.74614
H          2.94919        1.46639        0.81330
H          1.47036        1.98485       -0.02459
H          5.14729        4.19573        1.18079
H          4.66149        2.49729        1.37738
H          0.99573       -0.05721        1.34785
H          1.55632        0.77546        2.83615
H          0.07267        1.32999        2.00495
H          6.37212        3.18458        3.11537
H          4.82309        2.74732        3.91036
H          5.27429        4.46715        3.71350
