24
CIS-4-OCTENE.gamout	Energy:    -314.2301991
C          2.63683        3.37058        1.86438
C          3.98343        3.30864        1.75498
C          4.93192        2.30658        2.36332
C          1.71081        2.43825        2.60333
C          5.98879        2.95383        3.29122
C          0.65279        1.77217        1.69085
C          5.40290        3.58449        4.55916
C          1.23954        0.80294        0.65818
H          2.12979        4.20261        1.33760
H          4.47382        4.09996        1.15489
H          5.46915        1.78186        1.53928
H          4.37940        1.52020        2.92212
H          2.28397        1.65188        3.14099
H          1.17347        3.02082        3.38739
H          6.54709        3.72469        2.71237
H          6.73942        2.18125        3.57103
H         -0.08060        1.23432        2.33209
H          0.07496        2.56955        1.16984
H          4.65960        4.37318        4.31551
H          6.19267        4.04968        5.18551
H          4.88430        2.82737        5.18619
H          0.44778        0.36244        0.01673
H          1.96945        1.30952       -0.00836
H          1.77346       -0.03759        1.15194
