27
CIS-1-METHYL-4-ETHYLCYCLOHEXANE.gamout	Energy:    -353.5366129
C          0.69483        1.73322        1.15913
C          2.04543        1.00899        1.08683
C          3.13059        1.54977        2.04020
C          3.63501        2.95964        1.67397
C          4.33974        0.57680        2.12557
C          4.56415        3.54236        2.76664
C          5.64996        1.26514        2.57923
C          5.38020        2.45482        3.52044
C          6.66545        3.02622        4.13262
H          0.77584        2.80352        0.87526
H         -0.04941        1.27074        0.47773
H          0.27237        1.69485        2.18646
H          1.88800       -0.07053        1.31140
H          2.43857        1.04242        0.04385
H          2.66992        1.61813        3.05507
H          4.17887        2.88983        0.70405
H          2.78568        3.65206        1.49182
H          4.08218       -0.25440        2.81830
H          4.49722        0.10269        1.13058
H          5.26846        4.26935        2.30262
H          3.97065        4.12679        3.50393
H          6.32051        0.52761        3.07127
H          6.21475        1.63916        1.69444
H          4.75132        2.07281        4.35918
H          7.20059        2.26802        4.74321
H          7.36487        3.37095        3.33925
H          6.45366        3.89681        4.78932
