18
CIS-1-METHYL-2-ETHYLCYCLOPROPANE.gamout	Energy:    -235.6578020
C          2.01144        2.61242        0.66428
C          1.78194        2.45049        2.15744
C          3.19761        2.41620        1.59036
C          4.04782        1.15420        1.54042
C          4.81822        0.88337        2.84105
H          1.73304        1.76088        0.01897
H          1.85136        3.59805        0.19716
H          3.79139        3.32785        1.79102
H          4.76749        1.24585        0.69527
H          3.40898        0.27835        1.29163
H          5.48612        1.73382        3.09711
H          4.12924        0.73733        3.69917
H          5.45320       -0.02374        2.75926
C          1.07738        1.22668        2.71361
H          1.52849        3.38290        2.69407
H          1.34218        1.04663        3.77796
H         -0.02601        1.34889        2.66342
H          1.32774        0.30628        2.14706
