21
CIS-3-HEPTENE.gamout	Energy:    -274.9475984
C          1.51842        2.44890        1.91779
C          2.63191        1.55095        2.49977
C          0.83080        3.31583        2.97861
C          3.27641        0.64559        1.48136
C          4.58235        0.58285        1.13475
C          5.72826        1.40019        1.67864
C          6.46519        2.20672        0.59248
H          1.95068        3.09567        1.12205
H          0.76262        1.80807        1.40876
H          2.18397        0.92248        3.30700
H          3.39691        2.18485        2.99824
H          1.55460        3.99636        3.47681
H          0.03028        3.94767        2.54028
H          0.36523        2.69339        3.77307
H          2.58280       -0.04185        0.95987
H          4.86152       -0.14988        0.35295
H          5.37396        2.08243        2.47973
H          6.45898        0.71115        2.16393
H          6.85388        1.54274       -0.20894
H          5.79089        2.94519        0.11032
H          7.32908        2.76032        1.01646
