24
CIS-2-OCTENE.gamout	Energy:    -314.2288729
C          3.00521        3.48343        0.93752
C          2.00332        3.60721        2.10705
C          0.77731        2.67866        2.00030
C          4.10200        4.51654        0.99104
C          1.06531        1.16377        2.02700
C          5.43431        4.31482        1.10455
C          1.70620        0.65737        3.32646
C          6.16476        3.00286        1.18588
H          3.43412        2.45942        0.91153
H          2.44076        3.60534       -0.01810
H          2.54164        3.42988        3.06476
H          1.64373        4.65951        2.16023
H          0.07670        2.92134        2.83199
H          0.22941        2.92120        1.06124
H          3.75447        5.56680        0.94747
H          0.10618        0.62458        1.86202
H          1.71092        0.88733        1.16272
H          6.07588        5.21539        1.13861
H          1.08039        0.90704        4.21080
H          2.70993        1.10003        3.49891
H          1.83450       -0.44521        3.31219
H          5.48655        2.12690        1.15784
H          6.76547        2.93581        2.12015
H          6.88891        2.89511        0.34759
