16
CIS-1,4-HEXADIENE.gamout	Energy:    -234.4317655
C          5.29545        3.10222        2.55528
C          4.83619        1.99327        1.94831
C          3.71240        1.94784        0.93544
C          2.60139        1.00124        1.33606
C          1.29549        1.29502        1.52204
C          0.61556        2.62854        1.37650
H          6.12165        3.05994        3.28341
H          4.86349        4.09664        2.34696
H          5.29969        1.01859        2.19605
H          3.32480        2.97251        0.75856
H          4.13466        1.59757       -0.03845
H          2.91362       -0.04748        1.49799
H          0.63313        0.45912        1.81633
H          0.11074        2.92174        2.32356
H          1.31168        3.44546        1.10058
H         -0.18182        2.58927        0.60143
