24
CIS-1-METHYL-3-ETHYLCYCLOPENTANE.gamout	Energy:    -314.2545667
C          6.89280        1.28837        1.47292
C          5.63466        1.01837        2.30780
C          4.48976        2.01832        2.08264
C          3.23594        1.77162        2.94552
C          3.90685        2.05067        0.64428
C          2.15671        2.67508        2.31113
C          2.45453        2.59280        0.78095
C          0.71411        2.33571        2.69531
H          7.68771        0.54260        1.68312
H          7.31624        2.29323        1.68872
H          6.68128        1.24650        0.38368
H          5.90350        1.02228        3.38846
H          5.25636       -0.00898        2.09524
H          4.86856        3.04050        2.32675
H          3.39853        1.98148        4.02452
H          2.93229        0.70106        2.86082
H          3.89239        1.01237        0.24314
H          4.52659        2.64816       -0.05552
H          2.37022        3.71752        2.64388
H          1.73162        1.90917        0.28533
H          2.32440        3.58330        0.29716
H          0.55347        2.40522        3.79233
H         -0.01060        3.02327        2.20939
H          0.45074        1.30104        2.38362
