24
CIS-1,4-DIMETHYLCYCLOHEXANE.gamout	Energy:    -314.2619391
C          0.50439        2.83396        1.93476
C          2.01757        3.00982        2.12002
C          2.80649        2.61563        0.85260
C          2.54634        2.22355        3.33862
C          4.32642        2.77853        1.03720
C          4.06632        2.38532        3.52358
C          4.87602        2.00385        2.25959
H          0.24735        1.76947        1.73989
H         -0.05761        3.15102        2.83900
H          0.12583        3.42949        1.07695
H          2.21851        4.09264        2.31223
H          2.56131        1.55927        0.59296
H          2.46470        3.22842       -0.01102
H          2.01738        2.55499        4.25983
H          2.28821        1.14680        3.20973
H          4.86247        2.46164        0.11507
H          4.55345        3.86109        1.17082
H          4.28321        3.44876        3.77589
H          4.41425        1.78356        4.39229
C          4.92303        0.48265        2.02396
H          5.92676        2.33625        2.42244
H          5.36065       -0.04430        2.89840
H          3.91738        0.04497        1.84941
H          5.54584        0.23339        1.13855
