12
CIS-2-BUTENE.gamout	Energy:    -157.1004546
C          1.17557        1.42059        0.58078
C          2.47616        1.05079        0.61001
C          3.67027        1.90949        0.92422
C          0.59962        2.78203        0.85928
H          0.43729        0.63800        0.32393
H          2.70277       -0.00642        0.37617
H          3.40061        2.95965        1.15335
H          4.23521        1.50944        1.79565
H          4.38783        1.92443        0.07360
H         -0.12303        2.74467        1.70483
H          1.37236        3.53504        1.11106
H          0.02929        3.16347       -0.01669
