10
CIS-CROTONITRILE.gamout	Energy:    -209.9930089
C          0.84464        1.61311        2.00038
C          1.71390        1.54688        0.95818
C          0.95368        0.81024        3.18070
C          2.90787        0.65203        0.85463
N          1.02690        0.15957        4.15779
H         -0.00726        2.31357        1.97106
H          1.51785        2.22023        0.10446
H          3.83417        1.25219        0.71821
H          3.03268        0.01001        1.74875
H          2.82815       -0.00161       -0.04157
