21
CITRIC_ACID.gamout	Energy:    -759.5200001
C          0.86349       -0.23737        0.04601
C          0.44606       -0.27064        1.52737
C          2.37014        0.00923       -0.09164
O          1.20413       -1.28833        2.13418
C          0.68040        1.14719        2.12363
C         -1.09113       -0.55888        1.62966
C         -1.63879       -0.53571        3.04668
O          1.24862        1.09558        3.34988
O          0.29215        2.17113        1.59490
O          2.98896       -0.65029       -1.10931
O          2.98954        0.77539        0.61206
O         -0.94323       -1.38575        3.87349
O         -2.57211        0.12837        3.44448
H          0.34028        0.60474       -0.45405
H          0.55032       -1.18621       -0.43973
H          0.89198       -1.37497        3.05980
H         -1.25363       -1.57319        1.20601
H         -1.66958        0.18000        1.04478
H          1.32564        2.03063        3.64581
H          2.35046       -1.25196       -1.54084
H         -1.33887       -1.27611        4.76798
