27
CLOFENAMIC_ACID.gamout	Energy:   -1625.7313994
Cl         2.64102        0.08223        3.51170
Cl         5.13547        1.37823        2.03920
O         -3.20287       -1.32370        3.64542
O         -1.16760       -0.36026        3.67665
N          0.53030       -0.93839        1.70511
C         -0.38072       -1.89800        1.30072
C          1.62218       -0.40932        1.01581
C         -1.63473       -2.03376        1.99912
C         -0.11327       -2.80629        0.23884
C          2.70684        0.13576        1.76872
C          1.68735       -0.32299       -0.39745
C         -2.56520       -3.01767        1.58202
C         -1.05029       -3.76962       -0.14246
C         -2.29350       -3.87674        0.51522
C          3.81294        0.71745        1.11222
C          2.79804        0.24644       -1.03393
C          3.86957        0.76577       -0.29207
C         -1.94509       -1.16681        3.15623
H          0.29955       -0.51639        2.62638
H          0.86122       -2.76922       -0.26688
H          0.83673       -0.67697       -0.99590
H         -3.51590       -3.09271        2.12912
H         -0.79908       -4.46074       -0.96333
H         -3.02996       -4.63299        0.20468
H          2.82153        0.30318       -2.13333
H          4.74444        1.21793       -0.77990
H         -3.25664       -0.70808        4.40922
