42
CLOZAPINE.gamout	Energy:   -1375.7984038
Cl         5.64296        2.18540       -1.68388
N         -1.62163        2.64389       -0.56793
N         -2.90420        4.52407        1.19780
N          0.65437        2.25018       -0.49529
N          0.86417       -0.24328        1.00938
C         -1.36589        4.08344       -0.67623
C         -2.94671        2.36469       -0.00692
C         -1.56442        4.78874        0.67158
C         -3.13843        3.08978        1.33616
C         -0.55188        1.75515       -0.51565
C         -0.89433        0.29744       -0.61252
C         -3.18008        5.25698        2.42220
C         -0.22006       -0.65337        0.20105
C          1.83427        1.52763       -0.42103
C          1.99414        0.34081        0.36124
C         -1.89866       -0.15482       -1.49855
C         -0.64612       -2.00101        0.18787
C         -2.29546       -1.50025       -1.53033
C          2.98679        2.07226       -1.04390
C         -1.68691       -2.41765       -0.65511
C          3.27142       -0.22947        0.51448
C          4.24466        1.47506       -0.88843
C          4.40842        0.32882       -0.09293
H         -0.33037        4.21965       -1.03770
H         -2.08537        4.50352       -1.41484
H         -3.72010        2.72524       -0.72285
H         -3.08294        1.27769        0.13423
H         -0.75870        4.45309        1.38058
H         -1.44422        5.88537        0.53388
H         -4.17971        2.92656        1.69078
H         -2.45177        2.62357        2.09849
H         -4.22856        5.08151        2.74331
H         -3.05706        6.34671        2.24794
H         -2.50864        4.97157        3.27801
H         -2.37995        0.58025       -2.16249
H          1.15182       -0.97857        1.66198
H         -0.13363       -2.73083        0.83610
H         -3.08142       -1.83001       -2.22693
H          2.87065        2.99219       -1.63362
H         -2.00050       -3.47371       -0.65011
H          3.37931       -1.14187        1.12525
H          5.40192       -0.12224        0.03969
