79
CORTISOL_OCTANOATE.gamout	Energy:   -1581.7742157
O          2.81386       -3.06786        2.41239
O          0.50213        1.59743        1.31224
O          4.72419       -0.33790        2.97672
O          6.53819       -2.45179        2.74513
O         -5.54572       -0.50190       -1.46951
O          5.19219       -2.76816        0.94378
C          1.79839       -0.83380        2.84499
C          0.51002       -1.61907        3.21962
C         -0.79771       -0.86886        2.92633
C         -0.83602       -0.45090        1.42535
C          2.86238       -1.91539        3.26520
C          1.74589       -0.53166        1.33935
C         -2.17107        0.29486        1.00852
C          0.46591        0.22048        0.90698
C          0.79646       -2.13227        4.64857
C          2.33844       -2.38039        4.66737
C         -2.01540       -1.76121        3.23663
C          1.95881        0.45822        3.68700
C         -3.35295       -0.59722        1.41405
C         -3.34861       -1.11118        2.83403
C         -2.16514        0.49973       -0.53129
C         -2.36055        1.66290        1.72805
C          4.33479       -1.45905        3.26499
C         -3.54354        0.81644       -1.12459
C         -4.39838       -0.86123        0.57788
C         -4.58359       -0.23706       -0.74932
C          5.37400       -2.56439        3.58478
C          6.30605       -2.55746        1.41623
C          7.55333       -2.35760        0.58425
C          7.50884       -1.01340       -0.18031
C          7.64294        0.22839        0.71354
C          7.54636        1.54572       -0.07103
C          7.72618        2.80179        0.79427
C          7.59587        4.11907        0.01300
C          7.78401        5.36978        0.88042
H          0.51960       -2.51425        2.55715
H         -0.84946        0.04032        3.56794
H         -0.86729       -1.41508        0.86085
H          1.79076       -1.49252        0.78254
H          2.63333        0.05939        1.01484
H          0.43263        0.17429       -0.20906
H          0.50782       -1.37377        5.40718
H          0.23092       -3.05565        4.88377
H          2.82904       -1.82291        5.49183
H          2.59053       -3.45159        4.79176
H         -2.04037       -2.02436        4.31567
H         -1.89489       -2.72008        2.68186
H          2.10232        0.24580        4.76607
H          2.84420        1.02817        3.34935
H          1.07204        1.10942        3.57749
H         -3.54024       -0.24397        3.50937
H         -4.19578       -1.81162        2.98678
H         -1.78753       -0.43300       -1.00877
H         -1.44587        1.30438       -0.79019
H         -1.57392        2.37379        1.41938
H         -3.35768        2.09087        1.49491
H         -2.29944        1.56182        2.82973
H          3.50513       -2.96268        1.71284
H         -3.91823        1.79434       -0.74417
H         -3.51645        0.90258       -2.22995
H          1.40226        1.92511        1.12516
H         -5.22344       -1.51891        0.90361
H          4.92886       -3.57515        3.50363
H          5.74900       -2.40713        4.61663
H          8.44897       -2.42164        1.23393
H          7.58661       -3.19299       -0.14603
H          8.31827       -1.02120       -0.94346
H          6.55346       -0.97045       -0.74894
H          8.61627        0.18867        1.25519
H          6.85842        0.21142        1.50383
H          6.55672        1.59154       -0.58222
H          8.30351        1.54877       -0.88980
H          6.97909        2.78795        1.62112
H          8.72264        2.76768        1.29334
H          8.33651        4.12487       -0.81919
H          6.59663        4.15227       -0.47874
H          7.67252        6.30167        0.28807
H          8.79176        5.39024        1.34821
H          7.03870        5.40601        1.70365
