11
CROTONALDEHYDE.gamout	Energy:    -231.0610228
C          1.91354        1.13033        1.41814
C          2.34894        1.30005        2.69117
C          3.58026        0.64488        3.17177
C          0.68610        1.73292        0.81347
O          4.03356        0.74934        4.30172
H          2.52250        0.47990        0.75778
H          1.80488        1.92944        3.41789
H          4.09836        0.00915        2.38447
H          0.14026        2.37950        1.52886
H         -0.00746        0.93840        0.45864
H          0.94235        2.33780       -0.08421
