21
CUMENE.gamout	Energy:    -349.9268232
C          1.04999        1.09734        0.92093
C          1.63800        1.87413        2.11978
C          1.17594        1.26718        3.45936
C          3.15876        1.98226        2.01064
C          3.99895        0.87556        2.27020
C          3.76513        3.19555        1.61962
C          5.39431        0.97963        2.14443
C          5.16091        3.30612        1.49228
C          5.98215        2.19650        1.75499
H          1.41060        0.04621        0.91245
H          1.34467        1.55772       -0.04448
H         -0.05970        1.07266        0.96656
H          1.24143        2.91327        2.06991
H          0.06902        1.29775        3.54131
H          1.60032        1.81790        4.32392
H          1.48127        0.20315        3.55324
H          3.55641       -0.08504        2.58129
H          3.12783        4.07224        1.41311
H          6.02918        0.10341        2.35377
H          5.60883        4.26530        1.18605
H          7.07642        2.27880        1.65742
