9
CYANURIC_CHLORIDE.gamout	Energy:   -1658.6713763
C         -0.75541       -1.01668       -0.25271
N          0.55832       -1.25143       -0.16140
N         -1.36511        0.16523       -0.10829
Cl        -1.77014       -2.38129       -0.59255
C          1.27822       -0.15508        0.10167
C         -0.52248        1.17116        0.15144
N          0.80719        1.08556        0.27004
Cl         2.99437       -0.36347        0.23869
Cl        -1.22390        2.74401        0.35467
