19
CYCLOHEPTENE.gamout	Energy:    -273.7431741
C          1.53960        0.88782        1.94026
C          0.64436        2.14200        1.91214
C          1.39857        3.48578        1.88257
C          2.76057        0.97015        2.87952
C          2.62236        3.53542        0.94606
C          3.91390        1.79531        2.34245
C          3.85702        2.84043        1.48595
H          0.91800        0.00905        2.21926
H          1.91824        0.67467        0.91597
H         -0.02619        2.07006        1.02643
H         -0.02896        2.13861        2.79869
H          0.68427        4.29138        1.60403
H          1.75061        3.74029        2.90703
H          2.44847        1.34090        3.88620
H          3.14115       -0.05839        3.06520
H          2.35457        3.13400       -0.06177
H          2.89056        4.59897        0.76111
H          4.91978        1.47120        2.66764
H          4.82207        3.27247        1.16228
