16
CYCLOPENTANETHIOL.gamout	Energy:    -594.5115160
S          0.01207        2.67157        1.64740
C          1.76729        2.12980        1.74886
C          2.78760        2.98405        0.97051
C          4.07974        2.13020        0.98623
C          3.61212        0.64659        1.17603
C          2.06631        0.69752        1.26294
H         -0.09342        2.54194        0.29175
H          1.98285        2.19979        2.83957
H          2.41637        3.11787       -0.07003
H          2.91424        3.99740        1.40217
H          4.67482        2.26760        0.06005
H          4.73641        2.43958        1.82613
H          3.95393       -0.01082        0.35054
H          4.03949        0.22356        2.10905
H          1.61020        0.56453        0.25676
H          1.62822       -0.07809        1.92305
