11
CYCLOPROPYLAMINE.gamout	Energy:    -173.1123378
N          0.38060       -1.13817       -0.50738
C         -0.66504       -0.51382        0.27128
C         -1.32001        0.74808       -0.22803
C         -2.14271       -0.52778       -0.11007
H         -0.44990       -0.54461        1.35567
H         -1.04887        1.09019       -1.24179
H         -1.50310        1.57079        0.48200
H         -2.90567       -0.59595        0.68404
H         -2.41762       -1.04247       -1.04657
H          0.23221       -0.96044       -1.51004
H          0.33723       -2.16158       -0.39501
