20
CYCLOHEPTANONE.gamout	Energy:    -348.9321065
C         -3.12976        0.19453       -0.11721
C         -3.86344        1.42109        0.44543
C         -3.60260       -0.24915       -1.51940
C         -5.37056        1.25676        0.71355
C         -5.91805       -0.17227        0.75301
C         -6.00828       -0.82428       -0.66433
C         -5.12525       -0.17196       -1.74732
O         -6.08284        2.23286        0.89798
H         -2.03892        0.40530       -0.14884
H         -3.23843       -0.64958        0.59840
H         -3.74701        2.31965       -0.19909
H         -3.42070        1.71180        1.42651
H         -3.10552        0.37672       -2.29359
H         -3.24954       -1.28860       -1.70292
H         -6.91655       -0.12704        1.23016
H         -5.25887       -0.77945        1.41052
H         -7.06250       -0.76178       -1.00718
H         -5.77457       -1.90906       -0.59030
H         -5.42912        0.89433       -1.85495
H         -5.36225       -0.63900       -2.72794
