16
CYCLOPENTANOL.gamout	Energy:    -271.5642892
O         -0.00934        2.17265        2.77567
C          1.37515        1.93229        2.59831
C          2.26743        3.19049        2.50174
C          3.61924        2.66320        1.97403
C          3.28186        1.36204        1.16439
C          1.75697        1.15101        1.31928
H         -0.30854        2.69002        2.00240
H          1.67898        1.34182        3.49325
H          1.79973        3.88558        1.76528
H          2.34261        3.73780        3.46346
H          4.14864        3.41769        1.35710
H          4.29561        2.42308        2.82092
H          3.57777        1.44659        0.09884
H          3.84127        0.49547        1.57413
H          1.20659        1.61138        0.46582
H          1.45523        0.08481        1.36232
