19
CYCLOHEXANETHIOL.gamout	Energy:    -633.8043761
S         -3.39095        0.32624        2.75095
C         -3.85958        1.01847        1.09424
C         -5.09877        1.91206        1.29330
C         -4.12446       -0.07362        0.04386
C         -5.56671        2.52099       -0.04226
C         -4.59051        0.53587       -1.29343
C         -5.82350        1.43708       -1.10348
H         -2.30848       -0.38123        2.31495
H         -3.01690        1.65965        0.75097
H         -5.91753        1.29495        1.73016
H         -4.87311        2.71116        2.03140
H         -3.21053       -0.68836       -0.10906
H         -4.90332       -0.76079        0.44450
H         -6.48134        3.13012        0.12442
H         -4.78862        3.22544       -0.41660
H         -4.80869       -0.27464       -2.02176
H         -3.76055        1.13479       -1.73484
H         -6.68857        0.81163       -0.78374
H         -6.11548        1.90286       -2.06952
