19
CYCLOPENTYL_METHYL_ETHER.gamout	Energy:    -310.8359067
C         -1.87493        8.69474        1.28900
C         -1.00147        9.39019        2.37089
C         -1.28955        8.61531        3.68332
H          0.07444        9.41740        2.10265
H         -1.32757       10.44035        2.53479
C         -2.88316        7.78908        2.06885
H         -1.25819        8.08743        0.59492
H         -2.39898        9.44478        0.66194
C         -2.76845        8.22913        3.53988
H         -3.37340        9.14145        3.73882
H         -3.08305        7.45492        4.26893
H         -2.58687        6.72209        1.97519
H         -3.91857        7.86261        1.67850
O         -1.08640        9.34680        4.87957
H         -0.66543        7.68174        3.70315
C          0.26891        9.57535        5.19822
H          0.29815       10.09121        6.17935
H          0.78888       10.22225        4.45024
H          0.84774        8.62139        5.28469
