10
CYCLOPROPYL_CYANIDE.gamout	Energy:    -209.9794790
N          2.14129       -0.00024       -0.24638
C         -0.34657        0.00013        0.57072
C         -1.41367        0.75166       -0.22591
C         -1.41360       -0.75164       -0.22580
C          1.02615        0.00010        0.12012
H         -0.45197        0.00021        1.66946
H         -1.08504        1.27467       -1.13765
H         -2.17777        1.28608        0.36038
H         -2.17758       -1.28613        0.36057
H         -1.08489       -1.27472       -1.13748
