22
CYCLOHEPTANOL.gamout	Energy:    -350.1263962
O         -2.14963        1.33630       -0.75191
C         -2.99345        0.20725       -0.49282
C         -3.65481        0.45829        0.87524
C         -3.99634        0.02692       -1.64715
C         -4.91167        1.34767        0.85123
C         -5.11552       -1.00976       -1.44739
C         -6.18282        0.71586        0.19085
C         -6.04645       -0.76080       -0.22914
H         -1.79824        1.23128       -1.65605
H         -2.37005       -0.72129       -0.40663
H         -2.87896        0.93136        1.51435
H         -3.88499       -0.51851        1.35104
H         -4.44237        1.02711       -1.84239
H         -3.42834       -0.23495       -2.57015
H         -4.65143        2.30365        0.34794
H         -5.14787        1.62367        1.90135
H         -4.68002       -2.03175       -1.38051
H         -5.72663       -1.01004       -2.37674
H         -7.03622        0.79542        0.89803
H         -6.48499        1.31620       -0.69592
H         -5.70196       -1.35600        0.64413
H         -7.05597       -1.16061       -0.46691
