17
CYCLOPENTYLAMINE.gamout	Energy:    -251.7122139
N          0.65411        2.63117        1.78842
C          2.02654        2.14252        1.89345
C          3.02860        3.02774        1.12012
C          4.32397        2.18518        1.00464
C          3.89671        0.70017        1.26152
C          2.35628        0.72706        1.35034
H          0.34183        2.57065        0.80728
H          0.01948        2.01759        2.31769
H          2.29754        2.16752        2.97622
H          2.60049        3.22939        0.11147
H          3.17944        4.01357        1.60467
H          4.80180        2.31253        0.01160
H          5.07674        2.50924        1.75322
H          4.26295        0.00987        0.47396
H          4.32682        0.33688        2.21904
H          1.89863        0.63165        0.33837
H          1.93668       -0.08810        1.97802
