27
CYCLONONANE.gamout	Energy:    -353.5203540
C          3.39131        4.37087        3.58058
C          1.97403        3.77270        3.64887
C          4.33736        3.73718        2.54372
C          1.11482        3.96594        2.36877
C          0.70799        2.69308        1.59912
C          1.82353        1.91905        0.86248
C          2.69687        0.93491        1.69949
C          4.21526        1.21000        1.77824
C          4.69849        2.24945        2.80972
H          3.30861        5.46285        3.37299
H          3.86148        4.29257        4.58788
H          2.03796        2.69134        3.90281
H          1.45108        4.23601        4.51371
H          3.90245        3.84927        1.52565
H          5.27032        4.34141        2.52035
H          0.18081        4.50342        2.64304
H          1.64158        4.65061        1.66376
H         -0.05126        2.99339        0.84214
H          0.17258        1.99909        2.28959
H          1.33521        1.33523        0.05231
H          2.47444        2.64824        0.32855
H          2.29278        0.85157        2.73391
H          2.57188       -0.08166        1.26793
H          4.71950        0.24755        2.02058
H          4.59046        1.48986        0.76575
H          4.32242        1.94954        3.81563
H          5.80445        2.15760        2.88064
