11
CYCLOBUTANONE.gamout	Energy:    -231.0587343
O          0.01177        1.70626        0.65818
C          1.21111        1.74119        0.80374
C          2.23987        2.88536        0.94534
C          3.37051        1.80694        0.96777
C          2.31194        0.66028        0.89169
H          2.24261        3.60115        0.09580
H          2.11069        3.47144        1.88089
H          4.04512        1.85132        0.09072
H          3.99052        1.80490        1.88500
H          2.35904       -0.01280        0.00906
H          2.22276        0.02259        1.79769
