21
CYCLOHEPTANE.gamout	Energy:    -274.9695027
C          2.05267        0.97879        1.83156
C          0.95824        1.98331        1.41287
C          0.96747        3.35841        2.11816
C          3.39489        1.18363        1.10081
C          2.34788        3.98022        2.42870
C          4.19512        2.44200        1.47844
C          3.45338        3.78935        1.36905
H          1.69237       -0.04826        1.60291
H          2.20463        1.00449        2.93545
H         -0.04343        1.52713        1.57015
H          1.04133        2.13118        0.31213
H          0.40853        3.28135        3.07734
H          0.37841        4.06566        1.49233
H          3.18913        1.19852        0.00486
H          4.04409        0.29602        1.27283
H          2.72854        3.56857        3.39087
H          2.19819        5.06606        2.61583
H          5.10731        2.47752        0.84198
H          4.56074        2.33771        2.52683
H          4.20318        4.60053        1.49625
H          3.03771        3.92142        0.34323
