11
CYCLOPENTADIENE.gamout	Energy:    -193.9575728
C          2.59004        1.30795        0.73361
C          1.32057        0.50220        0.83795
C          2.81660        1.80573        2.13796
C          0.88211        0.53675        2.12977
C          1.80993        1.34584        2.93605
H          2.49472        2.14698        0.00323
H          3.44629        0.69632        0.36156
H          0.84588       -0.01857       -0.00586
H          3.66373        2.43663        2.44280
H         -0.02010        0.04342        2.52147
H          1.69629        1.54031        4.01312
