30
CYCLODECANE.gamout	Energy:    -392.8033172
C          3.38500        1.65337        3.37866
C          2.32580        0.89041        2.56070
C          1.68151        1.69905        1.41158
C          0.98900        3.02112        1.84439
C          1.40761        4.27039        1.03694
C          2.91670        4.58178        1.05373
C          3.52349        4.99746        2.41591
C          5.02885        4.65459        2.55825
C          5.38883        3.29279        3.20455
C          4.69207        2.02879        2.63838
H          3.64512        1.05642        4.28072
H          2.91521        2.57647        3.78048
H          1.52494        0.55344        3.25800
H          2.76977       -0.04112        2.14127
H          0.95334        1.04473        0.88516
H          2.46271        1.91902        0.65002
H         -0.11465        2.91025        1.77431
H          1.18577        3.21087        2.92296
H          0.83598        5.15080        1.40993
H          1.09295        4.13498       -0.02302
H          3.46143        3.69398        0.66573
H          3.12815        5.38315        0.31088
H          2.95898        4.53160        3.25253
H          3.37748        6.09189        2.55003
H          5.53499        5.44414        3.15613
H          5.49721        4.71165        1.54823
H          5.17826        3.34659        4.29817
H          6.49220        3.17494        3.12896
H          5.39060        1.16537        2.69444
H          4.49884        2.16783        1.55222
