21
CYCLOHEXYL_FORMATE.gamout	Energy:    -424.1174504
O          0.53901        1.70550       -0.73473
O          2.26334        3.10597       -0.35801
C         -0.46382        0.85926       -0.12117
C         -1.85354        1.31854       -0.57751
C         -0.18597       -0.60030       -0.50444
C         -2.95395        0.37726       -0.05292
C         -1.28750       -1.53810        0.02181
C         -2.68288       -1.08718       -0.44274
C          1.39104        2.39108        0.06684
H         -0.38444        0.96970        0.98888
H         -1.86061        1.33331       -1.69038
H         -2.02931        2.36410       -0.24527
H          0.81316       -0.90059       -0.12250
H         -0.13196       -0.65600       -1.61471
H         -3.94282        0.70861       -0.43497
H         -3.00969        0.45578        1.05752
H         -1.25877       -1.55424        1.13594
H         -1.07933       -2.57932       -0.30496
H         -3.46513       -1.75030       -0.01504
H         -2.75358       -1.19271       -1.54964
H          1.18378        2.21220        1.16361
