10
CYCLOBUTENE.gamout	Energy:    -155.8562720
C          0.65906        2.27356        0.91378
C          2.23126        2.27596        0.98397
C          2.12367        0.75837        0.99186
C          0.77022        0.75618        0.93217
H          0.15079        2.73462        1.78955
H          0.23098        2.71879       -0.01164
H          2.73851        2.72298        0.10036
H          2.65826        2.73819        1.90151
H          2.88398       -0.03917        1.03229
H          0.01182       -0.04375        0.90559
