25
CYCLOOCTANOL.gamout	Energy:    -389.4075967
C         -1.44891       -0.01619       -0.17462
C         -0.83915       -1.42635       -0.26385
C         -1.20791        0.78690        1.11492
C          0.69801       -1.54754       -0.20943
C          1.48790       -0.57140       -1.10739
C          2.05947        0.66551       -0.37868
O          2.57828       -1.32856       -1.65040
C          1.10342        1.69186        0.26164
C          0.25025        1.17977        1.44982
H         -2.54888       -0.11401       -0.31138
H         -1.10825        0.58376       -1.04851
H         -1.27097       -2.06636        0.53850
H         -1.18578       -1.87777       -1.22129
H         -1.63850        0.23413        1.98069
H         -1.80675        1.72238        1.03503
H          1.07175       -1.47000        0.83394
H          0.98098       -2.56544       -0.55088
H          0.81674       -0.22546       -1.93734
H          2.75770        0.27642        0.39762
H          2.69811        1.20944       -1.11491
H          3.12216       -0.71179       -2.17667
H          0.44360        2.13695       -0.51733
H          1.73641        2.53342        0.61605
H          0.78107        0.33260        1.93517
H          0.20518        1.97160        2.22866
