19
CYCLOHEXANOL.gamout	Energy:    -310.8586177
C         -1.00332       -0.01032        0.32817
C         -0.27540       -1.26358       -0.17076
C          1.21493       -1.25154        0.21172
C          1.91820        0.02651       -0.28007
C          1.18846        1.29053        0.20902
C         -0.30185        1.26412       -0.17624
O         -2.35465       -0.09542       -0.11916
H         -0.95980       -0.00893        1.45061
H         -0.78652       -2.16578        0.22764
H         -0.38994       -1.29859       -1.27822
H          1.31316       -1.31792        1.32010
H          1.71756       -2.15483       -0.19596
H          2.97801        0.03943        0.05527
H          1.94296        0.02548       -1.39424
H          1.27952        1.35643        1.31812
H          1.67372        2.20535       -0.19427
H         -0.41853        1.29695       -1.28353
H         -0.82227        2.16374        0.22570
H         -2.81177        0.71003        0.18817
