28
CYCLOHEXYLBENZENE.gamout	Energy:    -466.5786728
C          3.23875        1.70574        4.48747
C          3.89411        3.07479        4.80540
C          2.41852        1.20910        5.70458
C          2.43113        1.73595        3.19675
C          4.73858        3.02591        6.09040
C          3.26769        1.15889        6.98716
C          2.81278        0.95518        2.08428
C          1.28360        2.55135        3.06833
C          3.92141        2.51838        7.29046
C          2.07865        0.98425        0.88584
C          0.54716        2.58641        1.87308
C          0.94179        1.80179        0.77535
H          4.06788        0.97404        4.33565
H          3.09132        3.83946        4.92057
H          4.51292        3.40256        3.94219
H          1.98731        0.20943        5.48000
H          1.55057        1.88999        5.86698
H          5.16439        4.03016        6.30617
H          5.61078        2.34975        5.92786
H          4.06465        0.38818        6.86706
H          2.64277        0.82714        7.84492
H          3.70429        0.31046        2.16166
H          0.95834        3.17463        3.91730
H          3.12384        3.25913        7.53229
H          4.56449        2.44704        8.19481
H          2.39800        0.36431        0.03290
H         -0.34239        3.23220        1.79932
H          0.36441        1.82758       -0.16227
