22
CYCLOOCTENE.gamout	Energy:    -313.0239505
C          3.87386        1.67930        2.40574
C          2.63825        1.01566        1.74579
C          4.71399        2.61880        1.51657
C          1.26275        1.66829        2.00765
C          1.00036        3.05532        1.36885
C          1.75612        4.21564        1.98329
C          3.04052        4.53864        1.71453
C          3.93255        3.74637        0.79396
H          4.56029        0.88319        2.76854
H          3.54735        2.22413        3.31914
H          2.79972        0.92321        0.64616
H          2.56749       -0.03212        2.11147
H          5.51378        3.07051        2.14603
H          5.24236        2.01894        0.74103
H          0.48058        0.97212        1.62970
H          1.09775        1.73601        3.10749
H          1.22760        2.98572        0.28012
H         -0.08888        3.26507        1.43433
H          1.20456        4.83121        2.71732
H          3.49045        5.40034        2.24101
H          3.32294        3.29474       -0.01974
H          4.66442        4.41710        0.29339
