18
CYCLOHEXANE.gamout	Energy:    -235.6965894
C          0.00000       -1.47062        0.22911
C         -1.27329        0.73544        0.22902
C          1.27329        0.73544        0.22902
C         -0.00000        1.47062       -0.22911
C         -1.27328       -0.73544       -0.22902
C          1.27328       -0.73544       -0.22902
H          0.00000       -1.54173        1.34236
H         -1.33437        0.77009        1.34209
H          1.33437        0.77009        1.34209
H         -0.00000        1.54172       -1.34235
H         -1.33436       -0.77009       -1.34209
H          1.33436       -0.77009       -1.34209
H         -0.00000       -2.51646       -0.14942
H         -2.17906        1.25854       -0.14911
H          2.17906        1.25854       -0.14911
H          0.00000        2.51646        0.14941
H         -2.17906       -1.25854        0.14911
H          2.17906       -1.25854        0.14911
