15
CYCLOPENTANE.gamout	Energy:    -196.4032879
C          1.19006        2.99607        1.04515
C          2.72612        3.02778        0.92832
C          0.84273        1.48509        1.12867
C          3.16323        1.91609        1.90086
C          2.13276        0.78098        1.66297
H          0.88426        3.51220        1.98216
H          0.67218        3.51413        0.21111
H          3.03457        2.76881       -0.10993
H          3.16641        4.01997        1.16261
H         -0.03898        1.29970        1.77661
H          0.57384        1.09254        0.12498
H          4.21285        1.58551        1.75492
H          3.08652        2.29073        2.94589
H          1.94357        0.19178        2.58417
H          2.52201        0.06270        0.91068
