13
CYCLOPENTENE.gamout	Energy:    -195.1769186
C          0.69093        2.15190        1.28015
C          1.91855        3.07670        0.99740
C          3.11128        2.15392        1.11605
C          2.75657        0.88706        1.41064
C          1.25902        0.72098        1.54577
H          0.11001        2.51664        2.15164
H         -0.01181        2.14936        0.42232
H          1.87060        3.54945       -0.01040
H          1.98412        3.92325        1.71862
H          4.14870        2.49839        0.97364
H          3.46387        0.05187        1.54218
H          0.86808       -0.03157        0.82307
H          0.98249        0.33476        2.55353
