17
CYCLOHEXANONE.gamout	Energy:    -309.6524808
O          4.42147        0.58611        1.21888
C          3.46030        1.32186        1.38262
C          2.06563        1.01080        0.84903
C          3.57291        2.65491        2.13852
C          0.95206        1.17872        1.91490
C          2.23031        3.38774        2.29911
C          1.15122        2.42627        2.82900
H          1.88448        1.73426        0.02018
H          2.07101       -0.00309        0.40269
H          4.02239        2.42541        3.13101
H          4.32952        3.27675        1.61069
H         -0.02612        1.23202        1.39261
H          0.91135        0.26146        2.53875
H          2.34588        4.25161        2.98800
H          1.91303        3.82095        1.32426
H          0.18909        2.96474        2.95761
H          1.45371        2.09764        3.84766
