14
CYCLOPENTANONE.gamout	Energy:    -270.3708633
C          0.86475        1.97459       -0.15020
C          2.28146        1.49867        0.21692
C          2.29952        0.00868       -0.21052
H          2.43361        1.57576        1.31625
H          3.08611        2.09183       -0.26294
C          0.89203       -0.49965        0.14878
H          3.11475       -0.56593        0.27403
H          2.45983       -0.06486       -1.30891
C         -0.02873        0.72734       -0.00198
H          0.83457       -0.80971        1.21802
H          0.51376       -1.35358       -0.44869
H          0.80578        2.28141       -1.22032
H          0.46417        2.82086        0.44366
O         -1.24461        0.71400       -0.00339
