13
D-ALANINE.gamout	Energy:    -323.5129581
O          1.67379       -0.26406       -1.30049
O          1.37418        1.88528       -0.65982
N         -0.82174        2.22611       -2.41586
C         -0.13496        0.94223       -2.34400
C         -1.12672       -0.19372       -2.04056
C          1.03315        0.93578       -1.34271
H          0.32437        0.73150       -3.33836
H         -1.94813       -0.16806       -2.78185
H         -0.62854       -1.18104       -2.07540
H         -1.57172       -0.06813       -1.03023
H         -1.19995        2.44047       -1.48038
H         -0.12245        2.96627       -2.57230
H          2.39901       -0.15844       -0.64378
