17
DEA+1.gamout	Energy:    -214.0066303
C         -8.42015        2.23147        2.04115
C         -7.29540        1.83226        1.09638
H         -9.38762        1.92811        1.59323
H         -8.46672        3.32900        2.19978
H         -8.34371        1.72377        3.02480
N         -5.93359        2.22609        1.64655
H         -7.38290        2.32286        0.10600
H         -7.25301        0.73682        0.93125
H         -5.92610        3.24882        1.83203
H         -5.81144        1.79102        2.58267
C         -4.73744        1.87104        0.77729
C         -3.42511        2.26819        1.43870
H         -4.89512        2.38780       -0.19058
H         -4.80454        0.77943        0.59630
H         -3.35657        3.36176        1.61451
H         -2.58777        1.99433        0.76609
H         -3.26011        1.73350        2.39696
