14
DECAFLUOROBUTANE.gamout	Energy:   -1149.9668680
C         51.99393       37.05324        0.09021
C         50.67468       36.20713        0.08999
C         50.89706       34.66419       -0.07390
F         49.87935       36.62259       -0.92954
F         50.03271       36.41369        1.26482
C         51.77163       38.59614       -0.07414
F         52.63534       36.84693        1.26540
F         52.78975       36.63756       -0.92884
F         49.73668       34.03034        0.16357
F         51.81839       34.22794        0.80361
F         51.30192       34.37145       -1.31917
F         52.93191       39.23003        0.16375
F         51.36735       38.88861       -1.31966
F         50.84990       39.03259        0.80286
