26
DELTA-3-CARENE.gamout	Energy:    -390.3696926
C         -0.02053        0.54861       -1.63009
C          0.05381       -0.78786       -1.43481
C         -0.25895       -1.43220       -0.09852
C         -0.40944        1.57213       -0.59304
C         -0.74235        1.01120        0.78519
C         -0.66607       -0.49204        1.03029
C         -2.01742        0.21850        1.06163
C         -3.02647       -0.01672       -0.05403
C         -2.66208        0.41201        2.42886
H         -0.40602        1.65108        1.61972
H         -0.28514       -0.79835        2.02035
C          0.46387       -1.73390       -2.55222
H          0.23079        0.94981       -2.62981
H         -1.04089       -2.21512       -0.25624
H          0.64292       -2.00540        0.21972
H         -1.25985        2.18451       -0.98051
H          0.42806        2.30061       -0.48929
H         -3.73396        0.83771       -0.13310
H         -3.63497       -0.92490        0.15050
H         -2.54812       -0.14867       -1.04429
H         -3.25231       -0.48223        2.72758
H         -3.35431        1.28289        2.42657
H         -1.90295        0.59107        3.21892
H         -0.26912       -1.72882       -3.38762
H          0.54155       -2.78106       -2.19414
H          1.44941       -1.45869       -2.98433
