54
DESOXYCORTONE.gamout	Energy:   -1043.1933168
O          5.10849        0.57114       -0.83963
O         -6.62793       -0.65965        0.93572
O          4.04892       -1.67490        1.72233
C          0.85456        1.35297        0.25315
C          1.83439        0.22887       -0.20002
C         -0.56129        1.22440       -0.32956
C         -1.15487       -0.16696        0.04224
C         -2.62135       -0.39816       -0.50237
C          3.13646        0.71646        0.55589
C          1.24275       -1.11633        0.26269
C         -0.18280       -1.32399       -0.29483
C          1.64554        2.65786        0.04585
C         -1.49046        2.33960        0.17503
C          3.11458        2.26480        0.38080
C         -3.49442        0.81286       -0.13739
C          2.08074        0.22340       -1.72576
C         -2.91120        2.18454       -0.38726
C         -3.20397       -1.67915        0.16124
C         -2.63911       -0.55075       -2.04991
C          4.43286        0.08792        0.06038
C         -4.72242       -1.83590        0.01433
C         -4.76410        0.68309        0.34591
C         -5.48021       -0.60112        0.49580
C          4.93164       -1.20721        0.72043
H          0.74659        1.21755        1.35732
H         -0.49717        1.31069       -1.44015
H         -1.25594       -0.15119        1.15564
H          3.00028        0.42867        1.61869
H          1.21489       -1.13339        1.37436
H          1.89044       -1.96731       -0.03814
H         -0.12796       -1.45645       -1.39686
H         -0.58170       -2.27909        0.10506
H          1.27537        3.48204        0.68878
H          1.55436        3.00834       -1.00521
H         -1.08619        3.33844       -0.09432
H         -1.52797        2.30386        1.28830
H          3.81382        2.55129       -0.43002
H          3.47702        2.75956        1.30514
H          2.60217        1.13634       -2.07389
H          2.72146       -0.63689       -2.01125
H          1.13942        0.13442       -2.30365
H         -2.87586        2.35490       -1.48962
H         -3.59252        2.95974        0.02087
H         -2.95806       -1.64728        1.24661
H         -2.69610       -2.57665       -0.24931
H         -2.18319        0.32099       -2.56104
H         -2.08008       -1.45460       -2.36676
H         -3.67735       -0.64576       -2.42816
H         -5.10593       -2.71443        0.57253
H         -5.00728       -2.00103       -1.05051
H         -5.35428        1.57724        0.61276
H          5.94988       -0.96764        1.11635
H          5.08576       -1.94403       -0.10772
H          4.48483       -2.40955        2.19044
