24
DFRUCTOSE.gamout	Energy:    -686.6825045
C         -5.74789       -1.63745       -0.00938
C         -6.41481       -3.00633        0.17381
C         -7.80750       -2.79869        0.76960
C         -8.62791       -1.82542       -0.07851
C         -7.83273       -0.51541       -0.37003
O         -6.54104       -0.79143       -0.84960
O         -9.81856       -1.52295        0.65635
O         -8.43270       -4.07223        0.87856
O         -5.60918       -3.79862        1.02720
C         -8.51998        0.33125       -1.45926
O         -7.79365        0.25542        0.83041
O         -9.81770        0.73657       -1.01241
H         -4.76763       -1.74540       -0.51218
H         -5.58838       -1.16723        0.98649
H         -6.53983       -3.48495       -0.83168
H         -7.66524       -2.34373        1.78284
H         -8.86388       -2.32397       -1.04866
H        -10.30111       -0.87003        0.09170
H         -9.32363       -3.91471        1.24837
H         -6.16073       -4.57287        1.25948
H         -7.86295        1.19996       -1.69179
H         -8.65746       -0.26329       -2.38416
H         -8.47725       -0.15317        1.41057
H         -9.64202        1.31950       -0.24370
