27
DI-ISO-BUTYL_SULFIDE.gamout	Energy:    -713.5631954
C          1.70591        0.03541       -0.06503
S          3.31062        0.93227        0.02660
C          4.44978       -0.51137        0.08803
C          0.51186        1.01008       -0.10705
C          5.92804       -0.07490        0.10715
C          0.50803        1.86548       -1.38566
C         -0.80774        0.23191        0.04720
C          6.28841        0.70730        1.38083
C          6.83595       -1.30711       -0.06741
H          1.70004       -0.61152       -0.97270
H          1.62588       -0.62990        0.82275
H          4.22069       -1.12115        0.99284
H          4.25136       -1.14705       -0.80316
H          0.61282        1.69043        0.77069
H          6.08474        0.59476       -0.77083
H         -0.34306        2.57862       -1.38839
H          1.44501        2.44959       -1.49149
H          0.41042        1.22394       -2.28903
H         -1.67829        0.92127        0.05189
H         -0.83503       -0.35061        0.99212
H         -0.95296       -0.48151       -0.79342
H          7.35058        1.03014        1.36504
H          5.65799        1.61213        1.50186
H          6.14323        0.07652        2.28548
H          7.90696       -1.01557       -0.08950
H          6.61382       -1.84876       -1.01064
H          6.70195       -2.02142        0.77421
