27
DI-N-BUTYL_ETHER.gamout	Energy:    -390.6111825
C          3.41672        5.20321        0.57094
O          3.32195        6.26885        1.49753
C          4.57171        6.83256        1.84949
C          2.01551        4.67752        0.26808
C          4.34461        7.98335        2.82671
C          2.00130        3.51636       -0.73679
C          5.64205        8.67260        3.27406
C          0.59137        2.99256       -1.03778
C          5.40581        9.83177        4.25043
H          3.91514        5.54603       -0.37437
H          4.06066        4.37895        0.97781
H          5.10904        7.20195        0.93596
H          5.24060        6.05743        2.30905
H          1.40103        5.52331       -0.11374
H          1.54500        4.36204        1.22596
H          3.79429        7.59068        3.71072
H          3.66592        8.72140        2.34376
H          2.48679        3.84330       -1.68461
H          2.63146        2.68380       -0.34831
H          6.31627        7.92081        3.74446
H          6.18808        9.04645        2.37783
H          0.61198        2.15502       -1.76565
H          0.09234        2.62316       -0.11657
H         -0.05284        3.79119       -1.46387
H          4.76638       10.61759        3.79453
H          4.89329        9.48420        5.17278
H          6.35850       10.31129        4.55684
