34
DI-N-BUTYL_ACETAL.gamout	Energy:    -544.3394553
O        103.56669       29.34020        0.38089
C        102.42083       29.88975       -0.27807
C        104.61976       28.91910       -0.47061
O        101.32069       29.79088        0.57340
C        102.60748       31.36508       -0.61862
C        105.67430       28.19586        0.36557
C        100.91067       28.46233        0.91802
C        106.87776       27.71000       -0.45530
C        101.34184       28.07469        2.33464
C        107.93290       26.98264        0.38771
C        100.83804       26.68814        2.76184
C        101.26260       26.29948        4.18309
H        102.24989       29.28627       -1.21635
H        104.22778       28.23984       -1.27281
H        105.08924       29.78822       -0.99848
H        101.70728       31.75878       -1.13124
H        103.48204       31.51136       -1.28349
H        102.76576       31.93742        0.31698
H        106.01260       28.88375        1.17197
H        105.18661       27.33634        0.87734
H         99.79992       28.43688        0.83447
H        101.31305       27.73038        0.17751
H        106.52375       27.03534       -1.26808
H        107.34881       28.57840       -0.96987
H        102.45044       28.12050        2.37986
H        100.96656       28.85096        3.03868
H        108.79018       26.64584       -0.23120
H        108.33656       27.64050        1.18694
H        107.50590       26.08542        0.88456
H         99.72669       26.65607        2.68391
H        101.21010       25.92228        2.04270
H        100.89030       25.29254        4.46535
H        102.36897       26.28712        4.28379
H        100.87413       27.02133        4.93318
