21
DI-N-PROPYL_ETHER.gamout	Energy:    -312.0448264
C          1.74545        2.35753        4.48792
O          1.76112        1.51677        3.34166
C          1.18541        2.09224        2.17761
C          2.81764        3.45878        4.48470
C          1.18834        1.05678        1.05360
C          4.24961        2.91640        4.42007
C          2.59178        0.60790        0.62922
H          0.73143        2.81549        4.61629
H          1.91227        1.68119        5.35559
H          0.13698        2.42370        2.39399
H          1.75040        3.00311        1.85289
H          2.63613        4.15725        3.63698
H          2.67482        4.07173        5.40341
H          0.59071        0.17982        1.38799
H          0.64552        1.49397        0.18642
H          4.99904        3.73418        4.40537
H          4.39700        2.29957        3.51014
H          4.47368        2.26902        5.29531
H          2.54802       -0.15620       -0.17399
H          3.18939        1.46394        0.24763
H          3.14032        0.17279        1.48851
