21
DI-N-PROPYL_SULFIDE.gamout	Energy:    -634.9968878
S         50.92901       -0.02212        0.00000
C         49.37369        0.95750       -0.00002
C         50.23253       -1.72308        0.00003
C         51.35945       -2.76325        0.00003
C         50.83182       -4.20399        0.00006
C         49.69068        2.45842       -0.00003
C         48.43132        3.33364       -0.00007
H         48.77280        0.68724       -0.89762
H         48.77277        0.68725        0.89756
H         49.58556       -1.85048        0.89717
H         49.58553       -1.85050       -0.89708
H         52.00698       -2.59672       -0.88941
H         52.00697       -2.59669        0.88947
H         51.66225       -4.93972        0.00007
H         50.20617       -4.40845        0.89546
H         50.20617       -4.40850       -0.89531
H         50.31587        2.69425        0.88964
H         50.31587        2.69420       -0.88972
H         48.69192        4.41247       -0.00009
H         47.79971        3.14588       -0.89509
H         47.79968        3.14594        0.89494
