34
DI-N-AMYLAMINE.gamout	Energy:    -449.3262757
C        104.20016        9.98866        0.04957
N        102.99079        9.17284        0.00981
C        103.21601        7.73220        0.05027
C        103.85765       11.48268        0.01589
C        101.89062        6.96149        0.01380
C        105.07382       12.41675        0.00012
C        102.04779        5.43476        0.00090
C        104.69948       13.90754       -0.02130
C        100.70816        4.68009       -0.02308
C        105.90541       14.85331       -0.04182
C        100.85697        3.15370       -0.04048
H        104.85357        9.77215        0.94144
H        104.81781        9.72795       -0.84130
H        102.37818        9.43966        0.79369
H        103.82922        7.45301       -0.83821
H        103.81732        7.39922        0.94285
H        103.21468       11.67023       -0.87320
H        103.22107       11.72518        0.90028
H        101.27565        7.25832        0.89644
H        101.31671        7.29796       -0.87807
H        105.71680       12.21306        0.88838
H        105.70932       12.18576       -0.88673
H        102.65450        5.13106       -0.88363
H        102.63542        5.11063        0.89103
H        104.05240       14.10572       -0.90654
H        104.06227       14.13398        0.86457
H        100.10326        4.98740        0.86053
H        100.12274        5.01003       -0.91135
H        105.58966       15.91729       -0.05546
H        106.55125       14.70937        0.85126
H        106.54166       14.68421       -0.93740
H         99.86972        2.64681       -0.05757
H        101.42311        2.81175       -0.93334
H        101.40388        2.78933        0.85557
