23
DI-N-PROPYL_SULFONE.gamout	Energy:    -785.2812058
C         -0.03579        0.40921       -0.01754
C          1.28201        1.19441       -0.01139
C          1.06342        2.71124       -0.00700
S          2.69191        3.56673       -0.00054
C          2.26109        5.35358        0.00556
O          3.35736        3.25356        1.29279
O          3.36295        3.26335       -1.29323
C          3.53972        6.19694        0.01302
C          3.25026        7.70321        0.01929
H          0.15701       -0.68313       -0.02093
H         -0.65319        0.63657        0.87743
H         -0.64793        0.64325       -0.91434
H          1.89403        0.93263       -0.90042
H          1.88976        0.92663        0.87876
H          0.52173        3.05809        0.89804
H          0.52623        3.06424       -0.91237
H          1.64279        5.52750       -0.90054
H          1.63849        5.51949        0.91025
H          4.13932        5.91200        0.90356
H          4.14528        5.92090       -0.87635
H          4.19464        8.28548        0.02583
H          2.67298        8.01343       -0.87732
H          2.66631        8.00464        0.91463
