27
DI-SEC-BUTYL_ETHER.gamout	Energy:    -390.6153695
O         51.94427       29.49476       -0.00579
C         50.67322       28.87533        0.22758
C         53.05149       28.61342       -0.23046
C         50.51937       28.51847        1.72120
C         49.61060       29.85154       -0.27871
C         53.13088       28.23246       -1.72460
C         54.29868       29.33499        0.28157
C         49.26631       27.70514        2.06685
C         54.19004       27.17833       -2.06878
H         50.60087       27.92986       -0.36910
H         52.91452       27.67242        0.36204
H         51.42388       27.94893        2.02994
H         50.54250       29.46747        2.30259
H         48.58643       29.44835       -0.14542
H         49.76514       30.06633       -1.35499
H         49.68341       30.81212        0.27373
H         52.12823       27.86050       -2.03245
H         53.30294       29.16567       -2.30564
H         55.20912       28.71346        0.16213
H         54.18556       29.58615        1.35524
H         54.44552       30.28258       -0.27803
H         49.25239       27.42633        3.14088
H         48.33213       28.27011        1.86510
H         49.21492       26.76133        1.48152
H         54.14372       26.89805       -3.14152
H         55.22073       27.54025       -1.87104
H         54.04753       26.24727       -1.47835
