28
DI-TERT-BUTYLPEROXIDE.gamout	Energy:    -465.7104621
O         -0.38726        0.65591        0.28318
O          0.22302       -0.42643        1.10059
C         -1.69666        0.20998       -0.13881
C          1.65899       -0.33570        0.95251
C         -1.59190       -1.02102       -1.05562
C         -2.58376       -0.06816        1.08846
C         -2.20307        1.43733       -0.91666
C          2.13585       -1.47163        1.87448
C          2.07840       -0.59175       -0.50525
C          2.16172        1.02951        1.45581
H         -1.16580       -1.88132       -0.50357
H         -2.59229       -1.31251       -1.43733
H         -0.93832       -0.80222       -1.92415
H         -2.62274        0.82692        1.74185
H         -2.17876       -0.91204        1.68030
H         -3.61761       -0.32385        0.77658
H         -1.53849        1.66202       -1.77546
H         -3.22370        1.24328       -1.30388
H         -2.24083        2.32939       -0.25931
H          1.73849       -2.44936        1.53448
H          3.24350       -1.52164        1.86846
H          1.79750       -1.29879        2.91612
H          1.67286        0.19834       -1.16661
H          1.69378       -1.57228       -0.85241
H          3.18385       -0.59626       -0.60208
H          1.82647        1.20197        2.49888
H          3.27026        1.07364        1.43008
H          1.76503        1.84958        0.82620
