27
DI-TERT-BUTYL_ETHER.gamout	Energy:    -390.6093441
O         34.96317       26.66490       -0.00272
C         33.60559       26.16432        0.06418
C         36.18427       25.88930       -0.08127
C         32.77737       27.42047       -0.27390
C         33.28340       25.05696       -0.95954
C         33.24967       25.70114        1.49583
C         36.44726       25.40374       -1.52596
C         37.25517       26.93192        0.29961
C         36.25739       24.70736        0.90707
H         31.68955       27.20782       -0.22508
H         33.01155       28.23366        0.44250
H         33.02423       27.78015       -1.29323
H         32.19917       24.82078       -0.92340
H         33.83053       24.11582       -0.75101
H         33.52516       25.38627       -1.99000
H         33.56228       26.47233        2.22874
H         32.15332       25.55494        1.59311
H         33.73670       24.74495        1.76677
H         37.48868       25.03171       -1.62595
H         35.77114       24.58056       -1.82704
H         36.31168       26.24346       -2.23780
H         38.27432       26.49623        0.24949
H         37.07677       27.30391        1.32861
H         37.20548       27.79723       -0.39176
H         36.08186       25.04601        1.94774
H         35.52738       23.90831        0.66703
H         37.26831       24.25018        0.86554
