27
DI-TERT-BUTYL_SULFIDE.gamout	Energy:    -713.5592022
S          0.65409       -0.68320       -2.90838
C         -0.26096       -1.32392       -4.42838
C          2.40367       -1.37282       -2.76259
C          0.56388       -1.22680       -5.72092
C         -1.45705       -0.34882       -4.49677
C         -0.78102       -2.75559       -4.20023
C          3.36657       -0.64428       -3.71863
C          2.47550       -2.89592       -2.95036
C          2.75711       -1.01118       -1.30316
H          0.94815       -0.19881       -5.87729
H          1.42311       -1.92717       -5.72183
H         -0.07538       -1.49143       -6.59276
H         -2.12088       -0.62570       -5.34466
H         -1.11841        0.69669       -4.64422
H         -2.06154       -0.38964       -3.56680
H          0.04246       -3.49096       -4.11595
H         -1.42355       -3.06943       -5.05372
H         -1.38574       -2.81217       -3.27311
H          4.41369       -0.97280       -3.52951
H          3.14052       -0.85519       -4.78171
H          3.31595        0.45297       -3.56917
H          2.24701       -3.20017       -3.99162
H          1.77374       -3.41948       -2.27026
H          3.50512       -3.25223       -2.72382
H          2.07105       -1.50646       -0.58640
H          3.79582       -1.33647       -1.07566
H          2.70151        0.08440       -1.13298
