33
DIAZEPAM.gamout	Energy:   -1261.7870157
N         26.43762       49.70250        0.22213
C         26.87207       51.05050        0.16943
C         25.28678       49.34973        1.05842
C         26.86765       48.71666       -0.68248
C         28.04085       49.12917       -1.58142
O         26.34667       47.61058       -0.72539
N         29.24016       49.31446       -0.79082
C         29.32464       50.36340       -0.03119
C         30.57172       50.53582        0.77407
C         28.25176       51.40005        0.05562
C         28.61439       52.76654        0.01586
C         25.91737       52.08974        0.28540
C         26.28957       53.43670        0.25465
C         27.64686       53.77190        0.10464
Cl        28.12736       55.45400        0.03780
C         30.59464       51.28711        1.96950
C         31.75735       49.88741        0.36053
C         31.77169       51.38965        2.72600
C         32.94455       50.74730        2.30190
C         32.93102       49.99459        1.11450
H         25.36311       49.86051        2.03762
H         24.31767       49.61594        0.58130
H         25.29884       48.25237        1.19023
H         28.18333       48.30146       -2.29940
H         27.75021       50.04987       -2.14653
H         29.67424       53.04022       -0.07985
H         24.85250       51.83702        0.38686
H         25.53293       54.22988        0.33496
H         29.67925       51.78394        2.32134
H         31.72162       49.29530       -0.56476
H         31.76683       51.97455        3.65738
H         33.86864       50.83170        2.89301
H         33.84768       49.48969        0.77497
