21
DIBENZOFURAN.gamout	Energy:    -536.9437794
C          1.02667        2.03381        0.08331
C          2.03507        1.05361        0.06763
C          3.35680        1.51122        0.05637
C          1.34013        3.41375        0.08743
C          2.67306        3.85357        0.07584
C          3.70249        2.89024        0.05997
C          5.15826        2.92200        0.04495
C          6.14652        3.92811        0.03984
C          5.56184        1.55904        0.03395
C          7.49700        3.54482        0.02433
C          7.86805        2.17955        0.01394
C          6.90170        1.15779        0.01848
O          4.47725        0.70754        0.04062
H         -0.02860        1.71889        0.09265
H          1.80517       -0.02192        0.06436
H          0.52376        4.15262        0.09986
H          2.90927        4.92913        0.07914
H          5.86634        4.99292        0.04801
H          8.28166        4.31738        0.02028
H          8.93562        1.90919        0.00199
H          7.17631        0.09289        0.01045
