30
DIBENZYLAMINE.gamout	Energy:    -596.8290766
C          6.27920        1.79243       -0.57289
C          6.87512        0.51505       -0.60520
C          7.13675        3.04470       -0.62878
C          4.87884        1.87866       -0.44117
N          6.45594        4.18843       -1.22765
C          7.26395        5.40423       -1.23126
C          6.54358        6.59986       -1.82716
C          7.24494        7.55366       -2.59135
C          5.16808        6.80311       -1.59534
C          4.51462        7.93330       -2.10893
C          5.22588        8.88373       -2.85966
C          6.59525        8.68968       -3.09920
C          6.09501       -0.64652       -0.49554
C          4.70063       -0.54949       -0.36240
C          4.09660        0.71796       -0.34016
H          7.96829        0.43120       -0.71975
H          7.41608        3.33732        0.41259
H          8.11028        2.79945       -1.13240
H          4.41598        2.87612       -0.42410
H          6.17014        3.95747       -2.18967
H          7.52355        5.62687       -0.16788
H          8.25081        5.28106       -1.75311
H          8.31859        7.40329       -2.79053
H          4.61775        6.05271       -1.00867
H          3.43929        8.07481       -1.91923
H          4.71472        9.77160       -3.26169
H          7.16177        9.42287       -3.69252
H          6.57914       -1.63437       -0.52122
H          4.08696       -1.45969       -0.28123
H          3.00359        0.80432       -0.23980
