21
DIBENZOTHIOPHENE.gamout	Energy:    -859.8943120
S         -0.00002       -2.14722       -0.00030
C          0.72905        0.41275       -0.00009
C         -0.72907        0.41276       -0.00009
C          1.26363       -0.91095       -0.00020
C         -1.26366       -0.91094       -0.00020
C          1.62520        1.50558        0.00000
C         -1.62521        1.50559        0.00000
C          2.65126       -1.14592       -0.00020
C         -2.65130       -1.14589       -0.00020
C          3.00702        1.27659       -0.00000
C         -3.00703        1.27662       -0.00000
C          3.51657       -0.04202       -0.00010
C         -3.51660       -0.04199       -0.00010
H          1.23424        2.53563        0.00003
H         -1.23424        2.53564        0.00003
H          3.05008       -2.17219       -0.00030
H         -3.05013       -2.17216       -0.00030
H          3.70258        2.13024        0.00003
H         -3.70259        2.13028        0.00003
H          4.60537       -0.20903       -0.00010
H         -4.60540       -0.20899       -0.00010
