6
DIBROMOACETONITRILE.gamout	Energy:   -5279.6653318
Br         1.31412       -1.64098       -0.22061
Br         1.31478        1.64127       -0.22058
N         -2.10309       -0.00247       -0.17161
C          0.45034        0.00029        0.43949
C         -0.96019        0.00052        0.09178
H          0.59204        0.00027        1.53551
