21
DICHLORODIISOPROPYL_ETHER.gamout	Energy:   -1231.0470126
O         51.96478       29.62362        0.00760
C         50.70958       29.01792        0.32324
C         53.06006       28.76886       -0.33068
C         50.50050       28.99186        1.84148
C         49.60432       29.83762       -0.35229
C         53.24217       28.71681       -1.85190
C         54.31749       29.32744        0.34348
Cl        51.67376       27.90118        2.69986
Cl        51.86706       27.88024       -2.69757
H         50.67767       27.97447       -0.06505
H         52.87388       27.73738        0.04685
H         50.64228       30.00605        2.26481
H         49.48717       28.62573        2.10041
H         48.60009       29.41217       -0.14956
H         49.77389       29.83603       -1.44653
H         49.62202       30.88865        0.00388
H         53.28818       29.74436       -2.26360
H         54.16134       28.16436       -2.12974
H         55.21072       28.71102        0.11407
H         54.16184       29.33237        1.43986
H         54.51049       30.36891        0.01224
