18
DICHLONE.gamout	Energy:   -1453.7267643
C          1.66996        0.02520        0.08376
C          0.18186       -0.20818        0.06362
C          2.21228        1.28589        0.10669
Cl         2.64499       -1.39581        0.07614
O         -0.28267       -1.34327        0.04300
C         -0.68465        1.01322        0.07000
C          1.35796        2.52591        0.11385
Cl         3.91393        1.55768        0.12893
C         -2.36196        3.27598        0.08141
C         -0.96839        3.44105        0.09986
C         -2.91989        1.98277        0.05724
C         -2.08393        0.85494        0.05163
C         -0.12371        2.31428        0.09419
O          1.86375        3.64337        0.13485
H         -3.01859        4.16006        0.08588
H         -0.50411        4.43881        0.11872
H         -4.01348        1.85401        0.04275
H         -2.49309       -0.16679        0.03313
