5
DICHLOROFLUOROMETHANE.gamout	Energy:   -1058.6270456
Cl         1.72981        1.48614        0.00416
C          0.16902        0.60363       -0.01743
Cl        -1.22405        1.73298        0.00397
F          0.10257       -0.17919       -1.11274
H          0.11689       -0.01665        0.89870
