30
DICLOFENAC.gamout	Energy:   -1664.9968706
C         -1.55723       -4.29763        0.81210
C         -0.21686       -4.27157        0.40112
C         -2.42705       -3.28844        0.37870
C         -2.01755       -2.23411       -0.48727
C         -0.65872       -2.27550       -0.91709
C          0.22974       -3.26346       -0.46479
Cl        -0.07479       -1.11050       -2.08285
Cl        -4.10474       -3.33580        0.91841
H         -1.93684       -5.08294        1.47967
H          0.47957       -5.05008        0.74706
H          1.26829       -3.24019       -0.82380
N         -2.93478       -1.27713       -0.93101
H         -3.90072       -1.59764       -0.79420
C         -2.77977        0.12757       -0.75756
C         -1.90045        0.65833        0.20939
C         -1.79413        2.04175        0.39306
C         -2.58150        2.91590       -0.37195
C         -3.56155        1.00443       -1.55525
C         -3.45896        2.39064       -1.33089
C         -4.50270        0.44475       -2.60953
C         -4.55562        1.27135       -3.88815
H         -5.53546        0.32863       -2.21531
H         -4.13343       -0.56141       -2.89853
H         -4.07531        3.07554       -1.93432
H         -2.51082        4.00404       -0.22508
H         -1.10192        2.43715        1.15157
H         -1.30872       -0.03004        0.83011
O         -5.78164        1.84272       -4.07054
O         -3.64294        1.41600       -4.67706
H         -5.71259        2.33405       -4.92009
