35
DICYCLOHEXYL_SULFIDE.gamout	Energy:    -868.3031269
S          0.00001       -1.44687       -0.00002
C          1.42366       -0.26138       -0.07476
C         -1.42366       -0.26140        0.07476
C          1.83640        0.25317        1.31706
C          2.61219       -0.92579       -0.79311
C         -1.83641        0.25318       -1.31705
C         -2.61218       -0.92584        0.79310
C          3.03702        1.21626        1.22860
C          3.81414        0.03593       -0.88193
C         -3.03704        1.21625       -1.22857
C         -3.81414        0.03587        0.88194
C          4.22705        0.56614        0.50244
C         -4.22706        0.56610       -0.50242
H          1.08173        0.59710       -0.69729
H         -1.08174        0.59707        0.69731
H          2.09942       -0.62416        1.94966
H          0.97467        0.75007        1.81299
H          2.29904       -1.26199       -1.80410
H          2.91152       -1.84259       -0.23371
H         -2.09943       -0.62414       -1.94966
H         -0.97468        0.75009       -1.81298
H         -2.29902       -1.26205        1.80408
H         -2.91150       -1.84263        0.23367
H          3.33366        1.55034        2.24651
H          2.72784        2.13578        0.67886
H          3.54123        0.89536       -1.53676
H          4.66922       -0.47281       -1.37781
H         -3.33369        1.55035       -2.24647
H         -2.72786        2.13576       -0.67881
H         -3.54123        0.89529        1.53678
H         -4.66922       -0.47288        1.37781
H          5.06767        1.28716        0.40755
H          4.61234       -0.28076        1.11641
H         -5.06768        1.28711       -0.40751
H         -4.61234       -0.28078       -1.11641
