36
DICYCLOHEXYLAMINE.gamout	Energy:    -525.4999411
C         -1.10988       -0.09696        2.51891
C         -0.84410        1.41181        2.62023
C         -0.44442       -0.69263        1.27131
C          3.49165        1.37052        0.04073
C          3.14777        2.51176       -0.94244
C          5.00754        1.38373        0.32072
N          2.75808        1.51703        1.30522
C          3.63110        3.88051       -0.44430
C          5.50230        2.74508        0.83229
C          5.13717        3.86906       -0.14751
C          1.33900        1.14542        1.31713
C          1.05876       -0.37366        1.22599
C          0.65682        1.72796        2.56748
H         -2.20219       -0.29755        2.50964
H         -0.70798       -0.60341        3.42679
H         -1.35698        1.93210        1.77855
H         -1.28835        1.82214        3.55127
H         -0.60782       -1.79044        1.22812
H         -0.93034       -0.27116        0.36126
H          3.25610        0.40217       -0.47303
H          2.05417        2.53330       -1.13273
H          3.61943        2.27002       -1.92157
H          5.25714        0.57554        1.04353
H          5.53508        1.12331       -0.62333
H          3.24680        0.99142        2.04364
H          3.07662        4.13952        0.48356
H          3.39174        4.66302       -1.19395
H          5.03943        2.95540        1.82138
H          6.60021        2.71219        0.99243
H          5.45792        4.85201        0.25678
H          5.69952        3.72349       -1.09901
H          0.86708        1.62782        0.42900
H          1.57484       -0.87299        2.08042
H          1.50598       -0.79369        0.30107
H          0.83434        2.82205        2.59569
H          1.15733        1.30762        3.47236
