50
DICYCLOHEXYL_PHTHALATE.gamout	Energy:   -1077.9502448
C          6.30303        1.85008       -0.59887
C          6.89318        0.69117       -0.05992
C          4.92514        1.91353       -0.84506
C          4.11255        0.80829       -0.54969
C          4.68347       -0.34371        0.00880
C          6.06668       -0.41346        0.27510
C          6.59594       -1.60171        1.03102
C          8.39443        0.72595        0.07540
O          5.94356       -2.73727        0.66852
O          7.45374       -1.55011        1.89671
C          6.26132       -3.95276        1.39997
O          8.96109       -0.43897       -0.31733
O          9.00813        1.72890        0.40142
C         10.41339       -0.52345       -0.29776
C         10.89940       -0.80504       -1.71760
C         10.84245       -1.61552        0.67857
C          7.41935       -4.69642        0.73028
C          4.99205       -4.79747        1.43430
C         12.42686       -0.97066       -1.73876
C         12.88523       -2.05582       -0.75614
C         12.37102       -1.77547        0.66220
C          7.67620       -6.03737        1.43662
C          6.40793       -6.89805        1.48097
C          5.24546       -6.13985        2.13568
H          6.95590        2.70364       -0.83166
H          4.48771        2.82876       -1.27039
H          3.03047        0.84422       -0.74617
H          4.05537       -1.20847        0.26332
H          6.56868       -3.65985        2.42802
H         10.79671        0.46207        0.04299
H         10.41100       -1.73471       -2.08775
H         10.58288        0.01769       -2.38965
H         10.47034       -1.37294        1.69266
H         10.36260       -2.57510        0.38057
H          7.15897       -4.87062       -0.33771
H          8.32718       -4.06214        0.75039
H          4.18413       -4.23079        1.93976
H          4.65827       -4.97434        0.38708
H         12.76984       -1.20456       -2.76753
H         12.90401       -0.00182       -1.46496
H         12.50040       -3.04530       -1.09488
H         13.99179       -2.13266       -0.75886
H         12.67339       -2.59030        1.35136
H         12.84551       -0.84578        1.05109
H          8.49977       -6.58045        0.92868
H          8.02646       -5.84268        2.47602
H          6.12144       -7.18469        0.44280
H          6.60057       -7.84536        2.02394
H          4.32214       -6.75420        2.12275
H          5.48244       -5.95615        3.20858
