18
DIETHYL_CARBONATE.gamout	Energy:    -421.9294349
O          5.22324        2.78090        1.01738
C          3.89589        3.01207        1.05036
O          3.17873        1.85633        0.98947
O          3.42463        4.12566        1.12587
C          5.73573        1.42875        0.93139
C          1.74023        2.02540        1.02276
C          7.25253        1.51443        0.92977
C          1.10391        0.64943        0.93832
H          5.35896        0.83649        1.79314
H          5.34720        0.94959        0.00710
H          1.43837        2.67977        0.17703
H          1.46604        2.55858        1.95805
H          7.61771        2.09094        0.05605
H          7.61951        2.01067        1.85076
H          7.68831        0.49564        0.88363
H         -0.00035        0.74222        0.98488
H          1.36734        0.14217       -0.01209
H          1.43113        0.00493        1.77951
