20
DIETHYLENE_TRIAMINE.gamout	Energy:    -324.2379113
N         -0.10475        9.94417       -0.00191
C          1.19177        9.26508        0.02202
C          2.33767       10.28356        0.03860
N          3.63552        9.62061        0.03472
C          4.78024       10.52479        0.03246
N          7.24381       10.66827       -0.03339
C          6.10210        9.74961       -0.03654
H         -0.86188        9.25497       -0.10005
H         -0.27126       10.40752        0.90325
H          1.29345        8.64612       -0.89550
H          1.33877        8.55569        0.88306
H          2.19203       10.98171        0.91182
H          2.25333       10.92327       -0.86757
H          3.70078        9.00406        0.85779
H          4.69836       11.18271       -0.86461
H          4.81970       11.21953        0.91377
H          8.12212       10.13365        0.00316
H          7.27581       11.17879       -0.92819
H          6.18074        9.10209        0.86746
H          6.04373        9.04947       -0.90945
