15
DIETHYL_SULFIDE.gamout	Energy:    -556.4313429
C          0.82420        2.55122        4.16828
S          1.16402        0.82416        3.63175
C          1.02442        1.03702        1.80925
C          0.87325        2.65136        5.69340
C          1.26876       -0.29370        1.09728
H          1.57761        3.22482        3.70370
H         -0.17563        2.85170        3.78508
H          0.01005        1.42858        1.57358
H          1.76286        1.80156        1.48156
H          1.87102        2.36306        6.08435
H          0.11771        1.98910        6.16482
H          0.66598        3.69147        6.02113
H          2.28203       -0.69005        1.31660
H          1.18375       -0.16666       -0.00221
H          0.52877       -1.05958        1.40965
