19
DIETHYL_SULFATE.gamout	Energy:    -857.0362850
O          2.71662        0.40346        0.66002
S          1.22381        0.15660       -0.00182
O          0.91894        1.63653       -0.66804
O          1.32544       -0.75094       -1.14541
O          0.34296       -0.06687        1.14532
C          3.84855        0.38603       -0.25901
C          0.54984        2.70216        0.25654
C          5.10754        0.54048        0.57497
C          0.31413        3.95402       -0.56922
H          3.83648       -0.57140       -0.82072
H          3.73464        1.21557       -0.99170
H         -0.35918        2.39251        0.81381
H          1.37194        2.84584        0.99191
H          5.99597        0.52614       -0.08943
H          5.10723        1.49876        1.13244
H          5.20463       -0.28927        1.30363
H          0.02524        4.78956        0.10129
H          1.22924        4.25136       -1.11977
H         -0.50257        3.79958       -1.30261
