16
DIETHYL_KETONE.gamout	Energy:    -271.5772198
C         -0.16788        0.22619       -2.10276
C          0.07646        1.04019       -0.83236
C          0.77215        2.38098       -1.07986
C          0.83180        3.35120        0.10269
O          1.25695        2.66230       -2.16701
C          1.74176        4.55702       -0.13508
H         -0.64304       -0.74782       -1.86840
H         -0.82663        0.77295       -2.80767
H          0.78473        0.03194       -2.63451
H          0.72178        0.47830       -0.11591
H         -0.86659        1.22737       -0.26940
H          1.12196        2.78335        1.01582
H         -0.21725        3.67804        0.29729
H          1.71491        5.25347        0.72712
H          1.42769        5.10952       -1.04261
H          2.79241        4.24038       -0.29453
