35
DIETHYLCARBAMAZINE.gamout	Energy:    -632.7276986
O         -0.88864        0.00068       -1.85192
N          0.33063       -0.64554       -0.00161
N          3.10112        0.04216        0.33985
N         -1.86683        0.22597        0.23466
C          0.82922       -0.18450        1.29490
C          1.36534       -1.24260       -0.84634
C          2.06980        0.71036        1.12509
C          2.58853       -0.32690       -0.98009
C         -0.81273       -0.13387       -0.62588
C          4.33518        0.80567        0.27079
C         -2.91226        1.06251       -0.38019
C         -2.31968       -0.70139        1.28455
C         -2.44096        2.49231       -0.66070
C         -3.27523       -1.80094        0.79467
H          1.10152       -1.06102        1.92842
H          0.03799        0.39263        1.80849
H          0.91997       -1.42926       -1.84152
H          1.68409       -2.20994       -0.39416
H          1.75000        1.68503        0.65720
H          2.47896        0.95206        2.13074
H          3.38775       -0.85899       -1.54062
H          2.30065        0.57611       -1.58619
H          5.11127        0.22515       -0.27138
H          4.71576        1.00865        1.29428
H          4.22589        1.79567       -0.25244
H         -3.76380        1.08229        0.33203
H         -3.27859        0.60100       -1.32495
H         -2.80959       -0.10258        2.08547
H         -1.43512       -1.17582        1.75068
H         -1.61371        2.48994       -1.39785
H         -2.08880        2.98981        0.26681
H         -3.27138        3.09455       -1.08496
H         -2.79165       -2.43924        0.02601
H         -4.20131       -1.37934        0.35245
H         -3.57526       -2.45303        1.64194
