15
DIETHYL_ETHER.gamout	Energy:    -233.4804347
C          0.98770        2.77212        2.42821
C         -0.48109        2.48297        2.15047
O          1.78333        1.88788        1.66003
C          3.17481        2.07206        1.84451
C          3.92703        1.07241        0.97707
H          1.21150        2.64957        3.52083
H          1.23352        3.83791        2.17881
H         -1.13323        3.16022        2.73874
H         -0.72939        1.43556        2.41751
H         -0.70776        2.62477        1.07392
H          3.44813        1.93593        2.92446
H          3.46969        3.12212        1.58164
H          5.02265        1.19101        1.10313
H          3.67903        1.22057       -0.09387
H          3.65195        0.03385        1.25230
