17
DIETHYLENE_GLYCOL.gamout	Energy:    -383.7870118
O          1.74591        6.36660       -1.66128
C          1.97963        5.74489       -0.40762
C          3.01567        4.64733       -0.62999
O          3.26688        4.01513        0.60888
C          4.22572        2.97944        0.52846
O          5.37633        1.35460        1.81950
C          4.40874        2.38740        1.92245
H          1.08670        7.06967       -1.52355
H          2.37837        6.45373        0.36025
H          1.05818        5.27931        0.02306
H          2.63214        3.92238       -1.39208
H          3.94768        5.09929       -1.05507
H          3.90231        2.17450       -0.17890
H          5.20972        3.36146        0.15540
H          5.49688        0.97389        2.70739
H          3.41645        2.01683        2.28197
H          4.72372        3.20695        2.61534
