21
DIETHYLENE_GLYCOL_DINITRATE.gamout	Energy:    -792.4856232
O         35.79559       29.33510        0.17133
C         36.46691       30.05014        1.21306
C         37.42925       31.08663        0.64896
N         36.39978       28.01870       -0.16046
O         38.49310       30.42397       -0.00544
O         35.91996       27.56560       -1.16650
O         37.22763       27.57504        0.60038
C         39.39599       31.30032       -0.64850
C         40.55563       30.49140       -1.21562
O         41.35843       29.93472       -0.16941
N         41.04842       28.52045        0.16076
O         41.60847       28.18108        1.17033
O         40.33848       27.90938       -0.60316
H         35.66606       30.55104        1.79682
H         37.00200       29.33789        1.87520
H         36.88363       31.76214       -0.05710
H         37.80328       31.72427        1.49171
H         38.90134       31.86147       -1.48330
H         39.79478       32.06131        0.06878
H         40.18965       29.68287       -1.88204
H         41.23499       31.15256       -1.79419
