26
DIETHYL_SUCCINATE.gamout	Energy:    -613.7565707
O         -2.73206       -0.81905        0.20156
O          2.14082        0.47916       -0.63578
O         -2.75210        0.41814       -1.70380
O          2.16083       -0.75688        1.27033
C         -0.77198        0.43604       -0.27761
C          0.18050       -0.77524       -0.15553
C         -2.17910        0.03820       -0.69964
C          1.58777       -0.37741        0.26603
C         -4.07511       -1.27444       -0.09483
C          3.48408        0.93425       -0.33985
C         -4.50766       -2.21911        1.01229
C          3.91712        1.87759       -1.44788
H         -0.39203        1.15692       -1.02511
H         -0.83607        0.95119        0.70544
H         -0.19927       -1.49594        0.59222
H          0.24431       -1.29060       -1.13849
H         -4.74269       -0.38957       -0.17808
H         -4.07631       -1.76632       -1.09165
H          3.48553        1.42708        0.65651
H          4.15122        0.04913       -0.25568
H         -5.53532       -2.58683        0.81496
H         -3.83292       -3.09699        1.07575
H         -4.50552       -1.70975        1.99743
H          4.94497        2.24496       -1.25090
H          3.91470        1.36727       -2.43253
H          3.24286        2.75578       -1.51225
