26
DIETHYLENE_GLYCOL_MONOPROPYL_ETHER.gamout	Energy:    -501.6316231
O         -1.75190       -0.32270        0.00107
O          1.79243        0.31992        0.00090
O          5.35316       -0.23648       -0.00345
C         -0.58215        0.46800        0.00352
C         -2.95106        0.43220        0.00614
C          0.62110       -0.47072       -0.00165
C         -4.14124       -0.52519        0.00271
C          2.98735       -0.43574       -0.00279
C         -5.49267        0.19758        0.00855
C          4.16314        0.53621        0.00043
H         -0.53406        1.13791       -0.89247
H         -0.53242        1.13008        0.90522
H         -2.99314        1.10796       -0.88810
H         -2.99123        1.09889        0.90726
H          0.57307       -1.13195       -0.90333
H          0.57454       -1.13965        0.89441
H         -4.05322       -1.18170       -0.89035
H         -4.05064       -1.19064        0.88887
H          3.05465       -1.10272        0.89353
H          3.05366       -1.09569       -0.90438
H         -5.61329        0.84895       -0.88336
H         -6.33325       -0.52616        0.00621
H         -5.61034        0.83964        0.90757
H          4.07560        1.19235        0.90204
H          4.07448        1.19941       -0.89587
H          6.10550        0.38119       -0.00146
