16
DIETHYLAMINE.gamout	Energy:    -213.6298053
C         52.03877       10.05464        0.01336
N         50.82565        9.24277       -0.01989
C         51.06511        7.80317        0.01482
C         51.71477       11.54916       -0.00022
C         49.75421        7.01507       -0.00094
H         52.70164        9.82031        0.89277
H         52.64337        9.79574       -0.88611
H         50.22305        9.50349        0.77457
H         51.66869        7.53607       -0.88317
H         51.68899        7.47955        0.89452
H         52.64094       12.15959       -0.01929
H         51.10130       11.80888       -0.88744
H         51.14095       11.84512        0.90499
H         49.94340        5.92221       -0.01804
H         49.14260        7.23177        0.90215
H         49.14809        7.28537       -0.88981
