18
DIETHANOLAMINE.gamout	Energy:    -363.9396010
C         -2.24043       -0.20426        0.04485
C         -1.07871        0.79424       -0.05907
C          1.36602        1.00696        0.00036
C          2.67771        0.22554        0.15405
O         -3.51041        0.41983       -0.05855
H         -2.12231       -0.80448        0.98064
H         -2.18618       -0.92587       -0.80093
H         -3.61715        0.98993        0.72622
O          3.81430        1.07019        0.22088
H          2.76168       -0.52830       -0.67290
H          2.64688       -0.35120        1.10202
H          3.86228        1.55847       -0.62299
N          0.21109        0.11963        0.01092
H         -1.14062        1.50625        0.79775
H         -1.22721        1.41431       -0.98464
H          1.43149        1.64664       -0.92718
H          1.28024        1.71876        0.85136
H          0.28856       -0.54878       -0.76880
