9
DIFLUOROMETHYL_TRIFLUOROMETHYL_ETHER.gamout	Energy:    -650.7670550
C         -0.82293        1.91967       -0.86384
C         -1.55265        4.12066       -1.36397
O         -1.64116        2.97538       -0.55399
F         -2.77601        4.67561       -1.36655
F         -0.68210        4.99771       -0.81600
H         -1.23406        3.87365       -2.40120
F          0.48338        2.24316       -0.76685
F         -1.03175        1.47765       -2.12850
F         -1.09725        0.93621       -0.00975
