18
DIGLYCOLAMINE.gamout	Energy:    -363.9374178
O          0.56114        0.53194       -0.20923
O         -3.04185        0.44185       -0.21935
N          4.07066       -0.55388        0.01765
C          1.62219       -0.38851       -0.03759
C         -0.72119       -0.05125       -0.10311
C          2.94627        0.36030       -0.19141
C         -1.76063        1.04182       -0.33102
H          1.58472       -0.87623        0.96856
H          1.55422       -1.21230       -0.79683
H         -0.86748       -0.86531       -0.85833
H         -0.88218       -0.51234        0.90435
H          2.92779        0.89213       -1.17829
H          2.97788        1.15305        0.58735
H         -1.58139        1.49378       -1.33846
H         -1.59339        1.84948        0.42449
H          4.95413       -0.02824       -0.00177
H          4.13304       -1.21342       -0.77168
H         -3.70668        1.13953       -0.35721
