27
DIISOBUTYL_ETHER.gamout	Energy:    -390.6138200
O         -0.04808       -0.06884       -0.30673
C          1.84251       -1.57578       -0.34891
C         -2.10203        1.20754       -0.34534
C          1.36675       -0.11739       -0.31428
C         -0.56899        1.24752       -0.32648
C          3.37386       -1.62986       -0.46751
C          1.33637       -2.36631        0.86810
C         -2.66588        2.63139       -0.47973
C         -2.66460        0.48741        0.89030
H          1.40050       -2.02919       -1.26612
H         -2.39261        0.62446       -1.24963
H          1.76835        0.43536       -1.20347
H          1.78312        0.39620        0.59375
H         -0.19127        1.80270       -1.22471
H         -0.21745        1.82371        0.57143
H          3.74117       -1.09095       -1.36668
H          3.73274       -2.67779       -0.53642
H          3.86215       -1.17165        0.42048
H          1.65494       -3.42865        0.81618
H          0.23076       -2.33880        0.92991
H          1.74036       -1.94066        1.81314
H         -2.29085        3.14530       -1.39044
H         -3.77408        2.61872       -0.53643
H         -2.38668        3.25661        0.39658
H         -3.77228        0.42437        0.84815
H         -2.26255       -0.54178        0.96848
H         -2.39401        1.03020        1.82282
