22
DIISOPROPYLAMINE.gamout	Energy:    -292.1956944
N         35.16179       29.50160        0.47478
C         33.85897       28.87690        0.72724
C         36.06346       28.90870       -0.52633
C         33.23246       29.54381        1.96124
C         32.87227       28.87612       -0.46318
C         36.01696       29.61860       -1.89549
C         37.50224       28.87425        0.02493
H         35.04807       30.51053        0.30783
H         34.06825       27.81267        0.98929
H         35.73407       27.85417       -0.67480
H         32.28008       29.05510        2.25347
H         33.93423       29.50858        2.81851
H         33.00575       30.61399        1.75583
H         31.91445       28.38152       -0.19279
H         33.28680       28.33804       -1.34046
H         32.63782       29.91629       -0.78007
H         36.70229       29.14191       -2.62836
H         34.99587       29.61258       -2.32769
H         36.33559       30.67976       -1.79131
H         38.20511       28.38296       -0.68168
H         37.53168       28.33294        0.99192
H         37.87042       29.90638        0.21146
