21
DIISOPROPYL_ETHER.gamout	Energy:    -312.0518375
O          2.91123        2.16574        1.79531
C          1.84372        1.33813        2.27296
C          3.88617        1.52516        0.96277
C          0.64261        2.25585        2.50682
C          2.26558        0.58688        3.54494
C          5.19403        2.29970        1.13652
C          3.41622        1.48936       -0.49901
H          1.57049        0.58758        1.48884
H          4.04649        0.47466        1.31369
H          0.90250        3.03856        3.25002
H         -0.22860        1.68613        2.89017
H          0.35074        2.76219        1.56495
H          1.44505       -0.05825        3.92341
H          2.53912        1.31030        4.34163
H          3.14521       -0.06316        3.35667
H          5.05231        3.35810        0.83313
H          6.00338        1.86290        0.51621
H          5.51366        2.28816        2.19784
H          3.26307        2.52228       -0.87548
H          2.45638        0.94149       -0.60256
H          4.16133        0.98433       -1.14918
