21
DIISOPROPYL_SULFIDE.gamout	Energy:    -635.0001322
S          0.00096       -0.92131       -0.00148
C         -1.44444        0.24640       -0.00229
C          1.44179        0.25209        0.00387
C         -1.68091        0.87169       -1.38227
C         -2.66618       -0.53393        0.50064
C          1.67807        0.86897        1.38774
C          2.66583       -0.51993       -0.50640
H         -1.20165        1.04598        0.73233
H          1.19427        1.05579       -0.72456
H         -2.53233        1.58709       -1.34503
H         -0.79341        1.43073       -1.74379
H         -1.91708        0.08923       -2.13319
H         -3.55918        0.12611        0.53498
H         -2.49577       -0.94355        1.51657
H         -2.90221       -1.38256       -0.17651
H          2.52508        1.58975        1.35372
H          0.78798        1.42008        1.75510
H          1.92052        0.08275        2.13265
H          3.55620        0.14380       -0.53776
H          2.49529       -0.92350       -1.52470
H          2.90579       -1.37186        0.16512
