10
DIKETENE.gamout	Energy:    -305.0220682
C          4.42618        1.47651        1.01316
C          3.09359        1.54635        0.95146
C          1.88880        0.63146        0.89605
O          2.30815        2.72284        0.91493
C          1.12263        1.96400        0.86044
O         -0.00009        2.37051        0.80859
H          5.03857        2.38933        1.04132
H          4.92374        0.49735        1.03591
H          1.77520        0.01143       -0.01666
H          1.69136        0.01148        1.79431
