12
DIMETHYL_CARBONATE.gamout	Energy:    -343.3560462
O          0.75677       -0.37294        0.59220
C         -0.24393        0.39692        1.27416
C          1.74494        0.32563       -0.00572
O          1.85594        1.53685       -0.04356
O          2.58744       -0.57461       -0.55450
C          3.70318       -0.03820       -1.27948
H         -1.21727       -0.09527        1.08640
H         -0.25325        1.44043        0.90339
H         -0.03660        0.39513        2.36475
H          4.55450       -0.72516       -1.11265
H          3.94743        0.98292       -0.92690
H          3.46650       -0.00430       -2.36377
