22
DIMETHYL_PHENYL_CARBINOL.gamout	Energy:    -425.0912360
C          7.32217        3.95755        0.22177
C          7.21993        3.03447       -1.00733
C          6.75253        3.82336       -2.24856
O          8.56234        2.57070       -1.23062
C          6.28234        1.84747       -0.69723
C          6.82719        0.61074       -0.28922
C          4.87608        1.96474       -0.77167
C          5.99619       -0.47948        0.02147
C          4.04311        0.87733       -0.45831
C          4.59966       -0.35183       -0.06360
H          7.71585        3.39201        1.08960
H          6.33004        4.36952        0.49352
H          8.01540        4.79576        0.00428
H          6.66231        3.15370       -3.13068
H          5.76808        4.31126       -2.09864
H          7.49457        4.61325       -2.48295
H          8.53269        1.99059       -2.01684
H          7.92136        0.51900       -0.21420
H          4.41599        2.91755       -1.07781
H          6.44541       -1.43571        0.33500
H          2.94924        0.99154       -0.52628
H          3.94663       -1.20533        0.17836
