11
DIMETHYLCATION+1.gamout	Energy:    -135.4259590
C         -5.76636        0.77070        0.01994
C         -3.22705        0.70519        0.09768
N         -4.49788        0.09775       -0.44062
H         -5.74378        1.82740       -0.30404
H         -5.81601        0.71360        1.12290
H         -6.63344        0.25153       -0.42914
H         -4.53233       -0.90750       -0.18054
H         -3.25110        0.65511        1.20175
H         -3.17091        1.75879       -0.23285
H         -2.36234        0.13659       -0.29215
H         -4.46519        0.10303       -1.47893
