9
DIMETHYL_SULFIDE.gamout	Energy:    -477.8642527
C          0.79328        0.90271        2.31652
S          2.21618        0.32932        1.32804
C          2.77826        1.92328        0.63935
H          0.35697        0.00599        2.79974
H          0.01528        1.37502        1.68015
H          1.10293        1.61532        3.10995
H          3.65977        1.70571        0.00426
H          3.08427        2.63060        1.43889
H          1.99633        2.39586        0.00805
