10
DIMETHYLACETYLENE.gamout	Energy:    -155.8573756
C          2.73822        2.64955        1.04730
C          3.90318        3.53233        1.03089
C          1.76217        1.90944        1.06157
C          0.59840        1.02522        1.07934
H          4.71376        3.14972        1.68817
H          3.64547        4.55446        1.38334
H          4.32555        3.63129        0.00756
H         -0.15134        1.32178        0.31422
H          0.08825        1.04152        2.06675
H          0.88444       -0.02859        0.87166
