24
DIMETHYL_ISOPHTHALATE.gamout	Energy:    -687.5092279
O          5.10116        3.15613        7.80895
C          4.55671        2.16144        7.05565
O          4.60234        0.98346        7.36936
C          3.90136        2.69160        5.81515
C          5.74292        2.72766        9.02014
C          3.29055        1.76715        4.94648
C          3.87737        4.06907        5.50036
C          2.65643        2.20890        3.76971
C          3.24584        4.51014        4.32663
C          2.02265        1.17590        2.88621
C          2.63564        3.58795        3.46125
O          1.44782        1.73107        1.78413
O          2.01327       -0.02257        3.11352
C          0.82074        0.80422        0.88475
H          6.12376        3.64510        9.50448
H          6.57713        2.03048        8.80034
H          5.02268        2.20889        9.68534
H          3.30767        0.69420        5.18967
H          4.35678        4.78453        6.18393
H          3.22835        5.58420        4.08377
H          2.13849        3.92526        2.54038
H          0.01142        0.24239        1.39471
H          1.55760        0.07322        0.49341
H          0.40652        1.41274        0.06035
