11
DIMETHYLCHLOROSILANE.gamout	Energy:    -829.9603833
Cl         1.40719       -0.54023        0.27715
Si         3.39058        0.10699       -0.01088
C          3.67582        0.38486       -1.85306
C          3.66762        1.66952        1.00679
H          3.00111        1.17257       -2.24786
H          4.72457        0.70356       -2.03651
H          3.49358       -0.54494       -2.43015
H          2.99180        2.48508        0.67594
H          3.47797        1.48113        2.08351
H          4.71586        2.02213        0.89853
H          4.27762       -0.99884        0.48867
