12
DIMETHYLANION-1.gamout	Energy:    -322.9470221
C         -5.84823        0.56904        0.05579
C         -3.39118        0.59674        0.00168
N         -4.61176       -0.14478        0.01718
H         -3.28928        1.28380       -0.88856
H         -2.57630       -0.15721       -0.03118
H         -3.25183        1.25238        0.90919
H         -5.99945        1.25971       -0.82443
H         -5.96771        1.21274        0.97427
H         -6.64651       -0.20321        0.04740
C         -4.59616       -1.63529       -0.06750
O         -3.44785       -2.14630       -0.13448
O         -5.73425       -2.17353       -0.05927
