10
DIMETHYL_DISULFIDE.gamout	Energy:    -875.9799049
S          1.49819        2.48069        0.33011
C          0.71611        2.21693        1.97241
S          2.47033        0.67486       -0.03894
C          4.11532        0.90946        0.74618
H          0.02985        1.34790        1.94795
H          1.47138        2.08687        2.77254
H          0.13159        3.13879        2.17636
H          4.68995       -0.01406        0.52251
H          4.64143        1.78119        0.31036
H          4.03343        1.02200        1.84551
