52
DIOCTYLAMINE.gamout	Energy:    -685.0232396
N          0.00045       -0.01301       -0.36514
C         -3.80139       -0.59915       -0.13525
C          3.80037       -0.60449       -0.11550
C         -5.01362        0.34413       -0.08008
C          5.01310        0.33855       -0.06519
C         -2.46125        0.13678       -0.27105
C          2.46162        0.13240       -0.25986
C         -1.23486       -0.78467       -0.30795
C          1.23381       -0.78714       -0.29783
C         -6.36334       -0.37240        0.07531
C          6.36317       -0.37646        0.09388
C         -7.56693        0.57993        0.14722
C          7.56631        0.57801        0.14899
C         -8.91995       -0.12956        0.31405
C          8.92163       -0.12722        0.31436
C        -10.11256        0.83084        0.39746
C         10.11348        0.83673        0.36823
H         -3.78382       -1.22514        0.78712
H         -3.92786       -1.31403       -0.98085
H          3.92677       -1.32505       -0.95628
H          3.78143       -1.22396        0.81118
H         -4.87886        1.05862        0.76455
H         -5.03305        0.97231       -1.00102
H          5.03324        0.96149       -0.98964
H          4.87745        1.05760        0.77541
H         -2.32886        0.84978        0.57261
H         -2.47465        0.76061       -1.19604
H          2.48095        0.75189       -1.18768
H          2.32582        0.84920        0.58001
H         -1.20787       -1.39844        0.62236
H         -1.34990       -1.52343       -1.15056
H          1.35061       -1.53101       -1.13567
H          1.20255       -1.39535        0.63605
H         -6.33963       -1.00271        0.99480
H         -6.50557       -1.08403       -0.77078
H          6.50191       -1.09698       -0.74522
H          6.34459       -0.99612        1.02058
H          0.00554        0.57231       -1.21188
H         -7.59339        1.21054       -0.77219
H         -7.42016        1.29228        0.99220
H          7.42276        1.29828        0.98774
H          7.58618        1.19913       -0.77695
H         -8.88775       -0.76230        1.23062
H         -9.06804       -0.83842       -0.53239
H          9.06243       -0.84874       -0.52254
H          8.90108       -0.74488        1.24135
H        -10.20013        1.45236       -0.51971
H        -10.01097        1.52736        1.25727
H        -11.07149        0.28576        0.52199
H         10.02069        1.54680        1.21785
H         10.18865        1.44295       -0.56017
H         11.07489        0.29548        0.49040
