26
DIPHENYL_CARBONATE.gamout	Energy:    -726.5606156
O          6.43311        2.96244       -0.98390
C          5.59555        4.00408       -1.23206
C          5.93899        1.69130       -0.67490
O          6.41351        5.05823       -1.49127
O          4.38661        3.99456       -1.22291
C          5.89742        6.31885       -1.80758
C          6.67465        0.97963        0.28791
C          6.28996       -0.32912        0.61997
C          4.83112        1.11352       -1.31929
C          4.46022       -0.19810       -0.97465
C          5.18012       -0.92178       -0.00800
C          6.61818        7.03361       -2.77938
C          6.21127        8.33283       -3.12198
C          4.78266        6.88444       -1.16421
C          4.38941        8.18673       -1.51961
C          5.09412        8.91308       -2.49545
H          7.53974        1.46423        0.76461
H          6.86277       -0.88684        1.37753
H          4.26258        1.68139       -2.06683
H          3.59096       -0.65642       -1.47226
H          4.87772       -1.94750        0.25427
H          7.48940        6.55875       -3.25464
H          6.77221        8.89252       -3.88696
H          4.22625        6.31418       -0.40943
H          3.51447        8.63552       -1.02328
H          4.77424        9.93132       -2.76600
