24
DIPHENYLACETYLENE.gamout	Energy:    -539.0659536
C          5.27354        2.19919        0.41395
C          6.50712        2.18122        0.41484
C          7.93472        2.15806        0.41602
C          3.84593        2.22135        0.41382
C          8.68241        3.36052        0.54933
C          8.63921        0.92986        0.28384
C          3.14055        3.44894        0.54706
C          3.09909        1.01835        0.28053
C         10.08373        3.32938        0.54999
C         10.04062        0.91052        0.28573
C          1.73912        3.46716        0.54619
C          1.69775        1.04837        0.28098
C         10.76881        2.10727        0.41858
C          1.01179        2.26987        0.41343
H          8.14516        4.31554        0.65231
H          8.06795       -0.00514        0.17994
H          3.71115        4.38435        0.65091
H          3.63703        0.06380        0.17681
H         10.64871        4.26940        0.65434
H         10.57135       -0.04932        0.18236
H          1.20768        4.42652        0.65032
H          1.13343        0.10795        0.17660
H         11.87014        2.08766        0.41957
H         -0.08955        2.28865        0.41315
