25
DIPHENYLMETHANE.gamout	Energy:    -502.2434974
C          2.73382        2.71457        1.05298
C          4.08172        2.23586        1.57652
C          4.32205        0.86790        1.82365
C          5.57418        0.42453        2.28787
C          6.60880        1.34723        2.51311
C          6.38169        2.71526        2.27240
C          5.13049        3.15363        1.81079
C          2.05570        3.77344        1.91336
C          1.79864        3.53091        3.28174
C          1.15291        4.49253        4.07486
C          0.75341        5.72037        3.51502
C          1.00599        5.97613        2.15717
C          1.65238        5.00904        1.36533
H          2.05944        1.83566        0.95288
H          2.86039        3.11961        0.02492
H          3.51550        0.13650        1.64660
H          5.73930       -0.64887        2.47486
H          7.59035        1.00358        2.87678
H          7.18688        3.44699        2.44756
H          4.95786        4.22816        1.63411
H          2.11697        2.57549        3.73045
H          0.96051        4.28304        5.13957
H          0.24814        6.47565        4.13792
H          0.70015        6.93499        1.70840
H          1.84487        5.21671        0.29918
