22
DIPROPYL_KETONE.gamout	Energy:    -350.1423427
C          1.80709        1.60745        1.64815
C          3.26818        1.59314        2.11184
C          4.22255        2.53448        1.37662
O          3.65191        0.85669        3.01127
C          0.82646        0.92870        2.61350
C          5.70272        2.32553        1.70887
C          0.59197        1.71873        3.90739
C          6.62937        3.31255        0.99034
H          1.79971        1.09507        0.65665
H          1.50659        2.65698        1.42500
H          4.03262        2.44204        0.28139
H          3.90170        3.57491        1.62441
H          1.22325       -0.07902        2.86048
H         -0.14082        0.77163        2.08856
H          5.83372        2.39945        2.80951
H          5.98181        1.28048        1.45258
H         -0.13139        1.20133        4.57120
H          1.53627        1.83942        4.47653
H          0.18517        2.73228        3.69985
H          7.69328        3.13104        1.24814
H          6.39747        4.36497        1.26185
H          6.53809        3.23136       -0.11448
