23
DIPROPYLENE_GLYCOL.gamout	Energy:    -462.3552182
C          1.21737        0.05233        0.02102
C          0.54291        1.10842        0.90668
C         -0.98220        1.06226        0.85726
O         -1.50233        2.04606        1.73211
C         -2.91701        2.09975        1.74551
C         -3.36221        3.19755        2.70830
C         -4.88604        3.32605        2.83351
O          2.63277        0.15396        0.01596
O         -5.28538        4.39523        3.67679
H          0.87095       -0.97028        0.32185
H          0.90060        0.18952       -1.03634
H          0.89028        2.11704        0.59715
H          0.86324        0.97022        1.96499
H         -1.35517        0.04332        1.14371
H         -1.33837        1.24191       -0.19139
H         -3.34634        1.10923        2.05200
H         -3.31169        2.30523        0.71550
H         -2.94119        4.17028        2.37604
H         -2.92063        2.98312        3.70873
H         -5.32171        2.34699        3.16198
H         -5.32932        3.54543        1.83727
H          2.93416        0.01555        0.93381
H         -4.92183        4.21285        4.56393
