23
DIPROPYLCATION+1.gamout	Energy:    -292.5750695
C         -5.67093        1.65062       -0.02787
C         -4.36656        2.42589        0.21724
H         -5.74375        1.29445       -1.07621
H         -6.54544        2.30205        0.16444
H         -5.75623        0.77015        0.64176
C         -3.13669        1.55471       -0.04114
H         -4.34367        2.79990        1.26587
H         -4.33353        3.32016       -0.44539
C         -0.55870        1.54911       -0.05889
C          0.67838        2.41434        0.18401
C          1.97564        1.63676       -0.08965
H          2.02975        1.29018       -1.14231
H          2.06929        0.74942        0.56992
H          2.85563        2.28323        0.09412
H          0.67472        2.78106        1.23536
H          0.63701        3.31362       -0.47155
N         -1.84433        2.31491        0.20051
H         -0.58335        0.66191        0.60600
H         -0.61837        1.19190       -1.10731
H         -1.83721        2.66813        1.17800
H         -3.09295        1.19590       -1.08979
H         -3.10708        0.66809        0.62439
H         -1.84632        3.17289       -0.38581
