11
DIVINYL_ETHER.gamout	Energy:    -231.0212207
C          1.05290        2.29057        1.58269
C          1.57783        3.47820        1.93864
O          1.68932        1.10274        1.32062
C          2.99945        0.97899        0.93041
C          3.79715        1.87707        0.32238
H         -0.03674        2.13339        1.51910
H          0.88746        4.30284        2.16658
H          2.65626        3.66090        2.03693
H          3.33780       -0.05007        1.13732
H          4.80929        1.55901        0.03408
H          3.48543        2.90116        0.07731
