34
DLCITRONELLOL.gamout	Energy:    -507.2336834
C         -2.88901        2.21275        0.83891
C         -1.57008        2.25429        0.06657
C         -0.64958        3.45041        0.38580
H         -1.79903        2.22762       -1.02337
H         -1.03593        1.30504        0.29099
C          0.71250        3.28498       -0.32913
C          1.79751        4.29926        0.07016
H          0.54985        3.33459       -1.43217
H          1.08580        2.25703       -0.12508
C          3.17561        4.06893       -0.60206
H          1.46295        5.32761       -0.18794
H          1.92470        4.28458        1.17678
C          3.87014        2.78370       -0.22835
H          3.82768        4.93572       -0.36791
H          3.02976        4.09018       -1.70901
C         -1.31854        4.79369        0.04834
H         -0.45054        3.43327        1.48497
H         -2.26320        4.93947        0.61025
H         -1.56070        4.85311       -1.03583
H         -0.66216        5.65344        0.29234
C          5.05573        2.66355        0.41778
C          5.87537        3.86060        0.87077
H          6.81565        3.54057        1.36230
H          5.32437        4.49300        1.59934
H          6.15596        4.51802        0.02013
C          5.66184        1.30898        0.70291
H          6.65357        1.20484        0.20709
H          5.01423        0.48017        0.35428
H          5.84659        1.17143        1.79226
H          3.36529        1.84763       -0.53060
O         -3.52984        0.97870        0.53827
H         -3.53240        3.08409        0.55904
H         -2.67603        2.31418        1.93543
H         -4.38689        0.97347        1.00103
