24
DMPYR+1.gamout	Energy:    -330.6439006
N          0.41312       -0.50571       -0.01974
C         -0.40559        0.12714       -1.17336
C          1.47545        0.56311        0.35066
C          1.40145        1.62338       -0.74940
H          2.45785        0.06777        0.45884
H          1.18780        0.97900        1.33536
C         -0.08764        1.62002       -1.12758
H         -1.47041       -0.14354       -1.04200
H         -0.03984       -0.32708       -2.11465
H         -0.69764        2.14092       -0.35921
H         -0.29901        2.10682       -2.09998
H          2.02802        1.33596       -1.61981
H          1.76810        2.60452       -0.38898
C         -0.48677       -0.77889        1.15624
H         -1.05155        0.14134        1.39449
H          0.12304       -1.07098        2.02993
H         -1.18943       -1.59460        0.89968
C          1.07068       -1.79890       -0.51849
C          1.79640       -2.62169        0.53740
H          2.29420       -3.46684        0.02108
H          1.11230       -3.06186        1.28848
H          2.58926       -2.05228        1.06298
H          1.76042       -1.48108       -1.32654
H          0.25499       -2.38592       -0.98900
