18
E-2HEA+1.gamout	Energy:    -289.1577444
C         -6.81551        0.66328       -0.80698
N         -8.09614       -0.11768       -0.53764
C         -8.43100       -1.17565       -1.55772
H         -8.88609        0.55337       -0.46009
C         -9.72812       -1.92109       -1.22299
H         -7.58206       -1.88688       -1.59494
H         -8.51074       -0.68012       -2.54528
O         -9.84705       -2.88066       -2.23770
H         -9.64967       -2.36837       -0.19705
H        -10.58211       -1.19488       -1.19922
H        -10.66963       -3.39077       -2.11125
H         -8.02792       -0.55504        0.40269
C         -6.54227        1.69010        0.28125
H         -6.94559        1.12733       -1.80519
H         -6.01008       -0.09399       -0.88746
H         -7.34158        2.45729        0.34795
H         -5.60050        2.22136        0.03872
H         -6.40403        1.22111        1.27769
