39
E-CARYOPHYLLENE.gamout	Energy:    -585.5406375
C         -0.54685       -0.86842        1.64839
C         -0.09637       -1.84302        2.73055
C         -1.02609       -1.12571        0.40387
C         -0.40531        0.57342        2.09854
C         -0.18578       -3.37297        2.56424
C          0.72271       -4.03764        1.50084
C          1.73035       -3.22787        0.62714
C          1.90848       -5.00165        1.90775
C          1.33994       -2.57637       -0.68980
C          2.64276       -4.49556        0.62409
C         -0.04484       -2.81801       -1.26405
C          2.23175       -1.79884       -1.34343
C         -1.22377       -2.43868       -0.31220
C          1.56644       -6.49317        1.96419
C          2.64498       -4.57170        3.18601
H          0.09172       -4.63580        0.80889
H          2.22190       -2.45576        1.25674
H          0.95443       -1.56855        2.99028
H         -0.66623       -1.57811        3.65272
H         -1.25687       -0.23335       -0.20969
H         -0.74395        1.28866        1.32306
H          0.65270        0.81508        2.34853
H         -0.99099        0.76677        3.02562
H          0.06209       -3.80940        3.55676
H         -1.24582       -3.65438        2.38942
H          3.73953       -4.33268        0.68375
H          2.42795       -5.14565       -0.25056
H         -0.16274       -3.89108       -1.54495
H         -0.13199       -2.24517       -2.21182
H          3.24007       -1.60928       -0.93696
H          1.98960       -1.32669       -2.31003
H         -2.14763       -2.38057       -0.92881
H         -1.40350       -3.25861        0.40407
H          1.04818       -6.82604        1.03999
H          0.90085       -6.72215        2.82532
H          2.48166       -7.11406        2.07849
H          3.59241       -5.14124        3.29829
H          2.90413       -3.49210        3.18536
H          2.03598       -4.76792        4.09479
