28
ELLAGIC_ACID.gamout	Energy:   -1138.1296151
O         -0.98526        2.31408        0.01606
O          1.00462       -2.32761       -0.00974
O         -3.72085        1.99713        0.01658
O          3.74967       -2.01910        0.00716
O         -4.84504       -0.40057       -0.00198
O          4.86017        0.51653       -0.04568
O          0.75994        3.71972        0.03541
O         -0.74255       -3.73392       -0.01603
C         -0.70116       -0.09440       -0.00655
C          0.71807        0.07959       -0.00891
C         -1.26387       -1.39171       -0.01290
C          1.28532        1.37595        0.00982
C         -1.51593        1.05410        0.00495
C          1.53445       -1.06920       -0.01282
C         -2.91640        0.91533        0.00603
C          2.93359       -0.92007       -0.00032
C         -2.66574       -1.53971       -0.01217
C          2.68274        1.52948       -0.00496
C          0.40115        2.56294        0.02256
C         -0.38524       -2.57508       -0.01433
C         -3.47373       -0.39917       -0.00367
C          3.49644        0.38843       -0.02404
H         -3.09112       -2.55460       -0.01707
H          3.12723        2.53317       -0.01545
H         -4.64253        1.65855        0.01534
H          4.48863       -1.83662        0.62469
H         -5.17737       -1.31738       -0.00927
H          5.22027       -0.25482       -0.53241
