25
EMMOR+1.gamout	Energy:    -405.7921994
C         -2.71014        1.11073        1.08509
C         -1.41070        1.68795       -0.76530
C         -1.25137        0.22830       -1.19882
C         -2.63415       -0.38563        0.77002
N         -1.37567       -0.75070       -0.02411
H         -3.49422       -0.68048        0.13534
H         -2.64018       -0.99889        1.69181
H         -0.27264        0.04010       -1.68380
H         -2.05942       -0.03853       -1.90915
C         -0.14650       -0.67320        0.84651
H          0.72858       -1.00796        0.25931
H         -0.28098       -1.32402        1.72877
H          0.00915        0.36703        1.18102
C         -1.51564       -2.16577       -0.61196
C         -1.64176       -3.29938        0.39589
H         -2.40717       -2.11886       -1.26946
H         -0.62745       -2.30149       -1.26386
H         -2.53519       -3.20796        1.04522
H         -0.74237       -3.42825        1.02988
H         -1.76159       -4.23982       -0.17978
O         -2.64034        1.88904       -0.09473
H         -1.92174        1.41494        1.81715
H         -3.69057        1.31020        1.56247
H         -0.54959        2.02793       -0.13936
H         -1.41647        2.31673       -1.67867
