27
EMPIP+1.gamout	Energy:    -369.9340991
C         -2.38283       -2.06438       -0.86131
C         -2.59654        0.44363       -0.65083
C         -1.08960       -2.01228       -0.04583
C         -1.29972        0.46789        0.15779
N         -0.33757       -0.68248       -0.17720
H         -0.38412       -2.81257       -0.34082
H         -1.30479       -2.12287        1.03737
H         -1.51550        0.36142        1.24077
H         -0.72875        1.40698        0.01368
C          0.80989       -0.62286        0.84305
C          1.89397       -1.68360        0.70678
H          2.44618       -1.62916       -0.25201
H          1.51754       -2.71501        0.85276
H          2.63542       -1.49778        1.51024
H          1.23511        0.39697        0.74301
H          0.32109       -0.68297        1.83628
C         -3.32729       -0.90233       -0.51536
H         -2.85777       -3.04343       -0.64136
H         -2.15849       -2.08228       -1.95005
H         -3.69812       -1.02190        0.52730
H         -4.22188       -0.92293       -1.16899
H         -2.40059        0.68352       -1.71835
H         -3.22376        1.27792       -0.27198
C          0.21119       -0.51207       -1.56876
H         -0.61522       -0.47494       -2.29804
H          0.78663        0.43117       -1.61204
H          0.87043       -1.36535       -1.80782
