24
EMPYR+1.gamout	Energy:    -330.6437227
C         -1.78566       -1.18495       -0.47267
C         -0.88259       -0.04137       -0.95799
C          0.01598       -0.74069       -1.97646
H         -0.28911        0.38259       -0.12031
H         -1.43839        0.79670       -1.42279
C         -0.80094       -2.34080       -0.29413
H         -2.55687       -1.43147       -1.23295
H         -2.31755       -0.95953        0.47239
N          0.27637       -2.15358       -1.39977
H         -1.23696       -3.35253       -0.39256
H         -0.27755       -2.28010        0.67946
H          0.98600       -0.24718       -2.17248
H         -0.51061       -0.87587       -2.94093
C          1.65163       -2.22875       -0.79068
H          1.75347       -1.42874       -0.03470
H          2.41491       -2.09382       -1.57733
H          1.77976       -3.21613       -0.30776
C          0.09911       -3.23391       -2.47351
C          1.02815       -3.12666       -3.67489
H         -0.96379       -3.16616       -2.78252
H          0.23679       -4.20278       -1.95110
H          0.93009       -2.16500       -4.21743
H          2.09368       -3.28764       -3.41850
H          0.74797       -3.92734       -4.38901
