27
EPHEDRINE_SULFATE.gamout	Energy:    -519.6714102
O         -0.02735       -1.34701        3.12004
N         -1.84859       -0.50008        0.04487
C         -1.48992       -0.39623        1.46207
C         -0.21743       -1.26176        1.70927
C          1.00916       -0.70031        0.99722
C         -2.63104       -0.76710        2.42756
C          1.89255        0.16217        1.68114
C          1.26373       -0.99554       -0.35926
C         -2.62791        0.60278       -0.50051
C          3.00364        0.72015        1.02483
C          2.36891       -0.43218       -1.01857
C          3.24217        0.42924       -0.32958
H         -1.19687        0.66282        1.64355
H         -0.43913       -2.27470        1.28051
H         -2.33223       -0.62381        3.48364
H         -3.52689       -0.14297        2.22762
H         -2.91931       -1.83402        2.30064
H         -2.33386       -1.39201       -0.12052
H          1.69940        0.38501        2.74266
H          0.58045       -1.66852       -0.89947
H          0.79524       -1.85163        3.26683
H         -2.84526        0.41146       -1.57210
H         -2.03594        1.54155       -0.45057
H         -3.60823        0.80217        0.00746
H          3.68793        1.38531        1.57630
H          2.55096       -0.66747       -2.07978
H          4.11139        0.86734       -0.84611
