19
EPSILON-CAPROLACTAM.gamout	Energy:    -364.9854023
C         -6.23581        0.43027        0.38745
C         -5.05580        1.40133        0.71130
C         -5.84285       -0.87918       -0.32600
C         -3.67689        0.72870        0.75987
N         -3.21002        0.28893       -0.46502
O         -3.02588        0.58518        1.79333
C         -3.99113        0.28828       -1.69601
C         -5.16539       -0.72322       -1.70068
H         -6.99977        0.97036       -0.21414
H         -6.73927        0.15443        1.33780
H         -5.20053        1.87413        1.70092
H         -5.02370        2.22270       -0.03704
H         -6.74817       -1.51365       -0.44131
H         -5.16355       -1.45305        0.34251
H         -2.33048       -0.23336       -0.42060
H         -3.30177        0.09217       -2.54283
H         -4.38593        1.31391       -1.86504
H         -5.90500       -0.39360       -2.46429
H         -4.80426       -1.72206       -2.03069
