18
ERYTHRITOL.gamout	Energy:    -458.9725452
O          1.22438        1.53860        5.49860
C          0.91107        1.19979        4.14348
C          2.11276        1.66788        3.32195
O          3.30162        1.11764        3.89152
C          2.04808        1.25636        1.84563
O          0.89801        1.90736        1.31055
C          3.33790        1.63881        1.08596
O          4.44340        0.83848        1.43779
H          0.60821        1.06600        6.08604
H          0.79234        0.09641        4.01634
H         -0.01407        1.70114        3.77983
H          2.14126        2.78689        3.35984
H          3.16618        1.19217        4.86173
H          1.95818        0.14028        1.80018
H          0.80409        1.61646        0.38452
H          3.15189        1.49106       -0.00373
H          3.51876        2.73683        1.23063
H          4.45260        0.83428        2.42171
