44
ESTRADIOL.gamout	Energy:    -850.2013050
O          5.06847        1.21535        0.21279
O         -5.90600        0.15385        0.34871
C          2.69344        0.58557        0.14585
C          1.99976       -0.71249       -0.35809
C          0.52273       -0.79848        0.04743
C         -0.22898        0.42535       -0.55165
C          4.12618        0.34143       -0.39519
C          1.95461        1.79558       -0.45901
C          2.98431       -1.84129        0.01965
C          0.44171        1.76143       -0.14781
C          4.38616       -1.17676       -0.12946
C         -0.17885       -2.09121       -0.39297
C          2.74241        0.70076        1.68640
C         -1.73618        0.36704       -0.27659
C         -1.59618       -2.15668        0.18797
C         -2.38224       -0.86329        0.03260
C         -2.54337        1.52192       -0.37698
C         -3.77521       -0.89652        0.23681
C         -3.93066        1.48856       -0.17388
C         -4.55934        0.26681        0.13822
H          2.00599       -0.64306       -1.47482
H          0.45274       -0.73998        1.15992
H         -0.09553        0.33226       -1.66019
H          4.09748        0.52051       -1.50022
H          2.09742        1.78266       -1.56448
H          2.40010        2.74709       -0.09598
H          2.86635       -2.73737       -0.62317
H          2.81361       -2.17679        1.06511
H          0.26569        1.94216        0.93593
H         -0.04528        2.60821       -0.67538
H          4.98811       -1.26915        0.79879
H          4.98401       -1.63193       -0.94689
H          0.39762       -2.98386       -0.06970
H         -0.21416       -2.12247       -1.50669
H          3.34913        1.58387        1.96798
H          1.73424        0.81813        2.12948
H          3.21532       -0.18148        2.16346
H         -1.53123       -2.39375        1.27605
H         -2.16712       -2.99785       -0.26176
H          5.93156        1.05753       -0.21197
H         -2.08116        2.48900       -0.62658
H         -4.27818       -1.84662        0.47924
H         -4.52674        2.41382       -0.25852
H         -6.30729        1.03717        0.24113
