9
ETHANOL_GAUCHE.gamout	Energy:    -154.9186882
C          1.08045        0.89160        0.95967
C          1.92424        2.05310        1.48921
O          3.29731        1.72146        1.64685
H          0.00613        1.16651        0.89618
H          1.17818        0.00452        1.61896
H          1.40671        0.59295       -0.06111
H          1.78456        2.95180        0.83544
H          1.56884        2.34595        2.50080
H          3.63830        1.48133        0.76441
