9
ETHANETHIOL.gamout	Energy:    -477.8685258
C          0.91550        0.93740        1.64497
C          2.06109        1.93432        1.81240
S          3.70879        1.30891        1.26392
H         -0.03402        1.36212        2.03817
H          0.75139        0.68740        0.57548
H          1.12228       -0.00928        2.18459
H          1.84750        2.89183        1.29231
H          2.21970        2.18252        2.88312
H          3.36829        1.12328       -0.04480
