31
ETHACRYNIC_ACID.gamout	Energy:   -1723.0948408
Cl         1.34295        2.91035       -0.12963
Cl        -1.80671        2.86565       -0.11607
O         -2.97473        0.25279       -0.10321
O          3.29718        0.73997       -1.16578
O         -5.96934       -1.68151        0.01790
O         -5.67230        0.57230       -0.05928
C          1.23228        0.16176       -0.11729
C          3.54593       -0.73633        0.68119
C          2.74010        0.11723       -0.26423
C          4.98224       -0.99709        0.26965
C          0.50764        1.38324       -0.14293
C          0.49932       -1.04103       -0.08853
C         -1.62114        0.15360       -0.10989
C         -0.90299        1.38455       -0.12481
C         -0.90371       -1.05882       -0.09487
C          5.93378        0.16868        0.60633
C          3.03629       -1.14320        1.87060
C         -3.74084       -0.93153       -0.06308
C         -5.21918       -0.54841       -0.03670
H          5.01044       -1.17831       -0.82565
H          5.33461       -1.92516        0.76894
H          1.04768       -1.99525       -0.08215
H         -1.42953       -2.02335       -0.08889
H          6.97236       -0.07174        0.29774
H          5.62417        1.09121        0.07713
H          5.94036        0.37797        1.69642
H          3.64823       -1.72342        2.58213
H          2.01045       -0.88817        2.17877
H         -3.55903       -1.57908       -0.95305
H         -3.51759       -1.54393        0.84218
H         -6.90649       -1.38435        0.03064
