9
ETHANOL.gamout	Energy:    -154.9181941
C          1.12905        0.90350        0.97012
C          1.82486        2.13724        1.52840
O          3.20662        1.83838        1.68651
H          0.04430        1.08897        0.83081
H          1.25394        0.04267        1.65886
H          1.56614        0.61985       -0.00962
H          1.66497        3.00073        0.83275
H          1.35061        2.42440        2.50210
H          3.64109        2.63415        2.04365
