19
ETHOXYETHYLSULFATE-1.gamout	Energy:    -931.6688303
O         -2.40740        0.54401        2.47756
C         -3.38969        1.29146        3.14928
C         -1.17365        1.24312        2.32874
C         -0.14637        0.34004        1.65216
H         -0.78058        1.56639        3.32657
H         -1.32024        2.17267        1.72183
O          1.05895        1.06372        1.58464
H         -0.04017       -0.60564        2.24015
H         -0.51108        0.05447        0.63441
S          2.28380        0.26447        0.57697
O          2.38727       -1.09596        1.19069
O          3.43408        1.17862        0.80026
O          1.67710        0.29377       -0.79046
C         -4.68854        0.49288        3.18308
H         -3.05966        1.53945        4.19516
H         -3.55700        2.28000        2.64206
H         -4.53242       -0.48187        3.69020
H         -5.04323        0.28448        2.15234
H         -5.48306        1.04822        3.72446
