26
ETHYL_SUCCINATE.gamout	Energy:    -613.7608503
C          5.51852        2.34688        1.94119
C          4.24961        1.74837        1.35650
O          3.14612        2.29009        1.93189
O          4.20582        0.90911        0.47297
C          6.75830        1.51833        1.61101
C          1.87133        1.82099        1.42626
C          8.05349        2.27547        1.85002
C          0.77258        2.54148        2.18763
O          9.11235        1.42553        1.86218
O          8.15664        3.48273        1.98649
C         10.41708        2.03490        2.02319
C         11.45202        0.92385        2.04065
H          5.38708        2.49267        3.03319
H          5.63678        3.37242        1.52632
H          6.78704        0.56048        2.17026
H          6.72860        1.22167        0.53909
H          1.82377        2.01718        0.33340
H          1.82014        0.71838        1.55656
H         -0.22107        2.20498        1.82771
H          0.83908        3.63887        2.04193
H          0.83559        2.33351        3.27500
H         10.58358        2.74879        1.18755
H         10.42194        2.63206        2.96022
H         11.43203        0.34420        1.09552
H         11.27247        0.22203        2.88037
H         12.46749        1.35338        2.16122
