18
ETHYL_PROPYL_ETHER.gamout	Energy:    -272.7631592
O          3.09679        1.75130        1.06102
C          4.43135        1.28484        1.10892
C          5.37278        2.47845        1.26308
C          2.13649        0.71915        0.92519
C          6.85005        2.07464        1.32751
C          0.74613        1.33949        0.88219
H          4.68416        0.71100        0.17809
H          4.57123        0.57268        1.96506
H          5.07836        3.03169        2.18142
H          5.19475        3.17309        0.41321
H          2.21540       -0.00304        1.77985
H          2.32994        0.12451       -0.00569
H          7.50331        2.96387        1.43924
H          7.16976        1.54073        0.40730
H          7.05357        1.40285        2.18882
H         -0.02894        0.55274        0.77983
H          0.65453        2.03583        0.02389
H          0.54648        1.91003        1.81213
