20
ETHYLIDENE_DIACETATE.gamout	Energy:    -535.2003584
O         68.98345       29.84901        0.17516
C         67.62129       29.44247        0.06618
C         69.92847       28.90998       -0.17528
O         67.34103       28.66134        1.24603
C         66.75280       30.68422        0.01530
C         71.31904       29.46616        0.02875
O         69.65009       27.80187       -0.58253
C         66.48048       27.60648        1.08954
C         66.42057       26.77899        2.35437
O         65.86463       27.38944        0.06456
H         67.48435       28.78368       -0.81536
H         65.69058       30.38583       -0.08008
H         67.02602       31.30025       -0.86446
H         66.88515       31.28941        0.93433
H         71.43724       30.42127       -0.52195
H         71.47686       29.69135        1.10359
H         72.06651       28.72946       -0.31476
H         66.26783       27.42790        3.23960
H         65.60724       26.03648        2.27196
H         67.38857       26.25463        2.49531
