20
ETHYL_PHENYL_KETONE.gamout	Energy:    -423.8957936
C          0.23306       -0.07200        0.00110
C          1.08706       -1.19947        0.00157
C          2.47892       -1.04215        0.00075
C          3.04094        0.24922       -0.00072
C          2.20313        1.37868       -0.00098
C          0.80728        1.22085       -0.00007
C         -1.25558       -0.32407       -0.00018
O         -1.69023       -1.47306       -0.00229
C         -2.20666        0.87316        0.00132
C         -3.68138        0.47070        0.00010
H          0.61751       -2.19549        0.00260
H          3.13374       -1.92824        0.00119
H          4.13549        0.37565       -0.00164
H          2.64105        2.38963       -0.00185
H          0.16753        2.11655       -0.00019
H         -1.96380        1.50703        0.88515
H         -1.96330        1.51015       -0.88010
H         -4.33612        1.36527        0.00150
H         -3.92575       -0.14105       -0.89138
H         -3.92631       -0.14425        0.88923
