13
ETHYL_CARBAMATE.gamout	Energy:    -323.5253588
O          2.99520        1.86153        0.95145
C          1.64331        2.06786        1.03125
C          3.80104        3.05315        1.04927
N          0.98447        0.86533        0.97297
O          1.11429        3.16114        1.15668
C          5.26110        2.64158        0.95069
H          3.58143        3.56682        2.01091
H          3.51293        3.75810        0.23919
H         -0.02893        0.89313        0.87750
H          1.48563        0.01342        0.72381
H          5.53034        1.93427        1.76167
H          5.47726        2.15434       -0.02204
H          5.91103        3.53595        1.04152
