29
ETHYL_GLUTARATE.gamout	Energy:    -653.0423792
C         69.91293       30.02472       -0.19262
C         68.61508       29.24942       -0.36964
O         68.87268       27.92711       -0.57081
O         67.49584       29.72951       -0.34370
C         69.69364       31.52719        0.00049
C         67.72407       27.06141       -0.75304
C         71.00441       32.29425        0.18595
C         67.15299       26.59022        0.57896
C         70.80360       33.79027        0.37911
O         72.00303       34.41233        0.55464
O         69.73046       34.36628        0.38373
C         71.96787       35.84924        0.74176
C         71.96240       36.59115       -0.59028
H         70.45617       29.57445        0.66869
H         70.55463       29.81009       -1.07650
H         69.13698       31.93725       -0.86740
H         69.03068       31.69782        0.87371
H         66.95680       27.60537       -1.34168
H         68.11023       26.21235       -1.35193
H         71.58253       31.92027        1.06057
H         71.68753       32.16088       -0.68285
H         66.32399       25.87339        0.40364
H         67.92535       26.07955        1.18968
H         66.74890       27.44519        1.15650
H         71.07351       36.10966        1.34445
H         72.88170       36.07661        1.32643
H         72.01399       37.68589       -0.41506
H         72.83319       36.29990       -1.21252
H         71.03327       36.37896       -1.15529
