10
ETHYLENE_CYANOHYDRIN.gamout	Energy:    -247.0889534
N         -2.08606        0.71144        0.34591
C         -1.68973       -0.27465       -0.14801
C         -1.21583       -1.51517       -0.76261
C         -1.99864       -2.75792       -0.30272
H         -0.13960       -1.65797       -0.52387
H         -1.28918       -1.42921       -1.86844
O         -1.42400       -3.86084       -0.97863
H         -3.08057       -2.61887       -0.54690
H         -1.92257       -2.84606        0.80904
H         -1.89947       -4.66491       -0.70141
