20
ETHYLENE_GLYCOL_DIACETATE.gamout	Energy:    -535.1893343
O          1.93112        2.62575        0.27852
C          2.04844        1.72746        1.09000
O          3.25573        1.28024        1.55430
C          0.91821        0.94496        1.72275
C          4.43008        1.89943        0.99460
C          4.80505        3.15472        1.79190
O          5.97941        3.77388        1.23217
C          7.18670        3.32677        1.69660
O          7.30402        2.42863        2.50824
C          8.31692        4.10917        1.06372
H          1.02038       -0.13259        1.48166
H          0.96336        1.03471        2.82708
H         -0.04905        1.32601        1.35056
H          5.23410        1.14228        1.07369
H          4.24995        2.16215       -0.06791
H          4.00105        3.91189        1.71280
H          4.98518        2.89201        2.85441
H          8.21471        5.18676        1.30455
H          8.27182        4.01915       -0.04059
H          9.28419        3.72823        1.43603
