19
ETHYL_ACETOACETATE.gamout	Energy:    -460.0060513
C          5.03383        0.69783        2.05097
C          4.26218        2.01132        2.12479
C          6.30829        0.81292        1.17857
O          2.99263        1.85368        1.68421
O          4.71715        3.07228        2.52059
C          7.43908        1.63811        1.75733
O          6.36513        0.25493        0.09635
C          2.16067        3.04421        1.70406
C          0.81243        2.68149        1.10831
H          4.39458       -0.10177        1.63582
H          5.32970        0.44146        3.09133
H          7.84703        1.12483        2.65535
H          8.24274        1.76330        1.00826
H          7.04940        2.61829        2.10402
H          2.67451        3.84604        1.13220
H          2.07703        3.39965        2.75370
H          0.92099        2.32636        0.06356
H          0.31494        1.88349        1.69590
H          0.15109        3.57166        1.10487
