7
ETHYLENE_OXIDE.gamout	Energy:    -153.6726347
C          0.60078        0.48063        0.92348
O          1.51752        1.57715        0.93124
C          2.06131        0.25595        0.91291
H          0.02804        0.32165        1.85875
H          0.01760        0.34319       -0.00876
H          2.56264       -0.04864       -0.02728
H          2.57257       -0.07021        1.84043
