21
ETHYLCYCLOPENTANE.gamout	Energy:    -274.9700205
C          2.33998        2.40691       -0.25773
C          3.78037        1.84618       -0.28188
C          1.47000        1.27042        0.33058
C          3.83920        1.04229        1.03794
C          2.44057        0.39068        1.18027
H          2.31990        3.29731        0.41121
H          1.99290        2.74795       -1.25583
H          3.85979        1.12518       -1.13178
C          4.86765        2.91896       -0.45527
H          0.62430        1.66675        0.93003
H          1.01454        0.66908       -0.48464
H          4.66029        0.29586        1.06264
H          4.02380        1.75106        1.87753
H          2.12758        0.32369        2.24294
H          2.45463       -0.65130        0.79668
H          4.77858        3.64878        0.38310
H          4.65212        3.49801       -1.38167
C          6.30170        2.37708       -0.51849
H          6.41946        1.64070       -1.34258
H          6.59246        1.86783        0.42401
H          7.03515        3.19168       -0.69442
