14
ETHYL_ACETATE.gamout	Energy:    -307.4777400
O          1.82047        2.19925        1.04172
C          1.57033        3.57961        1.39957
C          2.22255        3.84072        2.74626
C          1.30087        1.79384       -0.14895
C          1.62872        0.34067       -0.42954
O          0.65829        2.52160       -0.88376
H          1.97643        4.23640        0.59992
H          0.47235        3.75236        1.42213
H          2.05247        4.89292        3.05320
H          1.80006        3.17919        3.52984
H          3.31704        3.66680        2.70064
H          2.18442        0.27748       -1.38691
H          2.22508       -0.11715        0.38047
H          0.68405       -0.22307       -0.56624
