19
ETHYLAL.gamout	Energy:    -347.9239963
O         -1.09107        0.47118        0.47339
O          1.08232        0.47533       -0.45849
C         -1.77471       -0.24044       -0.56178
C          1.76206       -0.26720        0.55628
C         -0.00206        1.23464        0.01617
C         -2.92517       -1.01763        0.06002
C          2.92428       -1.01229       -0.08308
H         -2.15452        0.48219       -1.32776
H         -1.06874       -0.92473       -1.08761
H          2.12875        0.43044        1.35151
H          1.05802       -0.97555        1.05202
H         -0.29835        1.88464       -0.84234
H          0.29818        1.86432        0.88847
H         -3.49255       -1.56421       -0.72076
H         -2.54919       -1.75370        0.79942
H         -3.62241       -0.33164        0.58353
H          3.49240       -1.57805        0.68344
H          2.56017       -1.72897       -0.84718
H          3.61745       -0.30344       -0.58065
