16
ETHYLENE_GLYCOL_ETHYL_ETHER.gamout	Energy:    -308.6338526
C         -1.41462       -0.42190        0.25634
C          0.67323       -1.53113        0.35817
C          2.07008       -1.51276       -0.25426
C         -2.14156        0.70871       -0.45761
H          3.71221       -2.53487       -0.01969
O          2.81985       -2.54417        0.36910
O         -0.09139       -0.50904       -0.24567
H         -1.62259        1.67447       -0.28937
H         -2.17534        0.52319       -1.55075
H         -3.18236        0.80009       -0.08546
H         -1.39884       -0.24180        1.36266
H         -1.95369       -1.39311        0.10480
H          0.21298       -2.54003        0.20028
H          0.75482       -1.38474        1.46580
H          1.97501       -1.65485       -1.35976
H          2.51341       -0.49864       -0.09243
