20
ETHYL_BUTANOATE.gamout	Energy:    -386.0208242
C          0.61129       -0.34834       -0.19277
C          2.08855       -0.01284        0.05913
C          3.01155       -1.00728       -0.66318
C          4.55480       -0.99745       -0.65960
O          5.32107       -0.08452        0.00610
O          5.13946       -1.85316       -1.29274
C          4.87492        1.00297        0.83676
C          6.12149        1.72531        1.32721
H         -0.06133        0.36710        0.32311
H          0.36033       -1.36820        0.16977
H          0.37085       -0.31672       -1.27673
H          2.28192       -0.01981        1.15273
H          2.28751        1.02433       -0.28582
H          2.76464       -1.01206       -1.74822
H          2.76274       -2.04175       -0.33610
H          4.28405        0.61480        1.69461
H          4.22586        1.69442        0.25814
H          6.77027        1.03622        1.90431
H          5.84361        2.57930        1.97820
H          6.70885        2.11192        0.47001
