32
ETHYL_ADIPATE.gamout	Energy:    -692.3242865
C          0.97743        0.68361        1.04584
C          1.00705        2.17480        1.32894
O          1.89591        2.40313        2.44694
C          7.45794        2.77945        1.79108
C          6.50790        2.51205        2.94807
O          7.19439        3.41117        0.78324
O          8.66597        2.20027        2.01802
C          5.21116        3.32639        2.87938
C          4.23141        2.97438        4.00825
C          2.95272        3.83009        4.03580
C          2.03390        3.70218        2.83018
O          1.45335        4.62424        2.28692
C          9.64611        2.36074        0.96717
C         10.93983        1.72288        1.43875
H          1.98570        0.30177        0.78546
H          0.60616        0.11427        1.92244
H          0.30116        0.47668        0.19123
H          1.36932        2.76087        0.45707
H          0.00182        2.57211        1.58584
H          6.29018        1.41918        2.94882
H          7.05890        2.69477        3.89645
H          5.45458        4.41114        2.91702
H          4.73982        3.16223        1.88704
H          4.74192        3.09405        4.98913
H          3.94642        1.90214        3.93753
H          2.34839        3.54097        4.92412
H          3.18062        4.90963        4.14657
H          9.26008        1.88551        0.03919
H          9.76487        3.44333        0.74712
H         11.31322        2.20902        2.36309
H         10.80047        0.64293        1.64931
H         11.71906        1.82522        0.65645
