32
ETHYL_OCTANOATE.gamout	Energy:    -543.1746546
C          5.30650        2.98949        2.41126
C          4.37495        1.94110        3.00112
O          3.10271        2.11637        2.55519
O          4.69481        1.06969        3.79163
C          6.79438        2.65521        2.57429
C          2.11591        1.20288        3.08782
C          7.27601        1.48571        1.70144
C          0.77393        1.55859        2.47505
C          8.75804        1.10898        1.89285
C          9.77632        2.16644        1.43409
C         11.23977        1.71703        1.57358
C         12.25984        2.76718        1.11625
H          5.02296        3.15093        1.34889
H          5.06630        3.94676        2.92612
H          6.98653        2.41781        3.64345
H          7.37820        3.57069        2.34171
H          2.42594        0.16184        2.85276
H          2.10562        1.28869        4.19620
H          7.09128        1.72696        0.62824
H          6.65673        0.59249        1.93176
H          0.79683        1.46554        1.37003
H         -0.01181        0.87797        2.86140
H          0.48394        2.59900        2.72677
H          8.93462        0.86910        2.96723
H          8.95391        0.16281        1.34040
H          9.57282        2.43339        0.37019
H          9.63375        3.10830        2.01230
H         11.43819        1.44710        2.63626
H         11.39151        0.77686        0.99499
H         12.16760        3.70857        1.69993
H         12.12373        3.03106        0.04514
H         13.30064        2.40314        1.23787
