44
ETHYL_LAURATE.gamout	Energy:    -700.3073978
C         -1.15872        0.50016        0.05743
C          0.11789        1.33664       -0.09587
H         11.77979       -0.29851       -0.68173
O         13.11658        2.51576        0.04169
H         16.35600       -0.62601        0.82853
H         -1.20106       -0.31634       -0.69530
H         -1.21542        0.02463        1.06036
H         -2.07134        1.11813       -0.07046
C          1.41309        0.52307        0.06568
H          0.12060        1.83176       -1.09403
H          0.11239        2.16651        0.64744
C          2.70015        1.35146       -0.08914
H          1.41133        0.02674        1.06439
H          1.41766       -0.30788       -0.67800
C          3.99781        0.53813        0.06707
H          2.69679        1.84898       -1.08707
H          2.69458        2.18086        0.65594
C          5.28662        1.36575       -0.08856
H          3.99974        0.03952        1.06448
H          4.00208       -0.29117       -0.67825
C          6.58196        0.54858        0.06971
H          5.28505        1.86211       -1.08700
H          5.28284        2.19586        0.65566
C          7.87488        1.37023       -0.08712
H          6.58136        0.05244        1.06841
H          6.58355       -0.28267       -0.67345
C          9.16529        0.54587        0.07778
H          7.87851        1.86214       -1.08753
H          7.87503        2.20289        0.65388
C         10.46188        1.35900       -0.07589
H          9.15821        0.05260        1.07798
H          9.16381       -0.28788       -0.66269
C         11.72582        0.50650        0.08372
H         10.48054        1.85659       -1.07104
H         10.49063        2.18627        0.66614
C         13.01968        1.30167        0.02164
H         11.72130       -0.03076        1.06015
O         14.09059        0.46615       -0.04288
C         15.38588        1.10732       -0.06447
H         16.34587       -0.63091       -0.96674
H         17.45389        0.46900       -0.07809
C         16.44128        0.01678       -0.07131
H         15.45047        1.75886       -0.96264
H         15.47612        1.77286        0.82094
