20
ETHYL_ISOBUTYRATE.gamout	Energy:    -386.0433982
O         34.20890       29.59431        0.70493
C         35.09406       29.43482       -0.32083
C         36.38462       30.21245       -0.06170
O         34.86826       28.75403       -1.30556
C         32.93175       28.92031        0.57728
C         36.11226       31.72785        0.02101
C         37.10497       29.69144        1.19822
C         31.90973       29.79081       -0.14376
H         37.01351       30.00482       -0.95276
H         33.08715       27.96266        0.03923
H         32.62151       28.70895        1.62068
H         37.06542       32.28413        0.13832
H         35.61153       32.10238       -0.89571
H         35.46490       31.96627        0.88964
H         38.06875       30.22388        1.33751
H         37.32346       28.60624        1.12342
H         36.48399       29.85694        2.10219
H         30.92663       29.27600       -0.17087
H         31.77630       30.76402        0.37129
H         32.22462       29.97889       -1.18973
