21
ETHYL_TERT-BUTYL_SULFIDE.gamout	Energy:    -634.9983820
S         39.96834       19.84955       -0.02498
C         38.09576       19.97260        0.00518
C         40.29831       18.03893       -0.00647
C         37.83341       21.49137       -0.01064
C         37.48783       19.31511       -1.24521
C         37.53006       19.34808        1.29165
C         41.81131       17.80563       -0.03497
H         39.85443       17.58794        0.90672
H         39.81685       17.56342       -0.88764
H         36.73939       21.68584        0.00646
H         38.28430       21.98832        0.87331
H         38.25170       21.96333       -0.92381
H         36.38486       19.46152       -1.25893
H         37.67115       18.22083       -1.26879
H         37.90857       19.75549       -2.17179
H         37.97982       19.81357        2.19198
H         36.42796       19.49413        1.33667
H         37.71590       18.25505        1.33807
H         42.03546       16.71848       -0.02385
H         42.26891       18.24053       -0.94759
H         42.30672       18.26614        0.84482
