14
ETHYL_THIOACETATE.gamout	Energy:    -630.3853709
S          2.16625       -1.02620       -0.00237
O         -0.34863       -0.41122       -0.00268
C         -1.49176        0.47347       -0.00162
C         -2.74249       -0.38956       -0.00408
C          0.92111        0.05483       -0.00117
C          1.11774        1.55474        0.00151
H         -1.46047        1.12845        0.89799
H         -1.45942        1.13194       -0.89864
H         -3.64656        0.25295       -0.00333
H         -2.77335       -1.03644       -0.90361
H         -2.77442       -1.04005        0.89282
H          2.19707        1.78145        0.00251
H          0.64968        2.02503       -0.89114
H          0.64867        2.02199        0.89522
