10
ETHYLENE_GLYCOL.gamout	Energy:    -230.0720691
C         -0.37681        1.55760        1.42007
O          0.94828        1.04984        1.40155
C         -0.74574        1.93926       -0.01028
O         -2.07085        2.44699        0.00825
H         -0.48229        2.46564        2.06492
H         -1.12256        0.80851        1.78685
H          1.18315        0.80627        2.31441
H         -0.00001        2.68837       -0.37706
H         -0.64025        1.03123       -0.65514
H         -2.30569        2.69066       -0.90459
