12
ETHYLENEDIAMINE.gamout	Energy:    -190.3720197
N          0.75929        1.68287        1.43547
C          1.99656        0.89847        1.40673
C          3.19589        1.78774        1.04924
N          4.43314        1.00332        1.02048
H         -0.01954        1.09777        1.76542
H          0.50366        1.95651        0.47557
H          2.00453        0.02266        0.70745
H          2.16073        0.47915        2.42625
H          3.18794        2.66354        1.74852
H          3.03175        2.20708        0.02972
H          4.68877        0.72966        1.98039
H          5.21198        1.58842        0.69057
