10
ETHYLENE_DICYANIDE.gamout	Energy:    -264.0995453
C          3.31418        1.03986        0.91921
C          1.92376        1.73288        0.88549
C          0.82512        0.76289        0.85997
C          4.41284        2.00984        0.94422
N         -0.04228       -0.02421        0.83937
N          5.28037        2.79684        0.96332
H          3.39498        0.38578        1.81317
H          3.43698        0.38328        0.03187
H          1.80089        2.38917        1.77304
H          1.84300        2.38725       -0.00826
