20
ETHYL_N-BUTYRATE.gamout	Energy:    -386.0431478
C          5.11285        2.87139        1.84204
C          3.60407        2.93378        1.67055
O          2.99949        1.93092        2.37245
O          2.99695        3.74820        0.99854
C          5.74839        1.63715        1.16757
C          1.55727        1.84253        2.26881
C          7.27183        1.58966        1.32842
C          1.12343        1.03567        1.05086
H          5.52733        3.80923        1.42062
H          5.33887        2.85287        2.93077
H          5.28832        0.72177        1.59754
H          5.48338        1.63813        0.08698
H          1.13883        2.86970        2.22947
H          1.23749        1.35579        3.21226
H          7.70251        0.69377        0.83513
H          7.75643        2.48346        0.88090
H          7.56510        1.55497        2.39948
H          1.56797        0.01935        1.06253
H          0.01850        0.92761        1.04351
H          1.42110        1.54701        0.11392
