24
ETHYLCYCLOHEXANE.gamout	Energy:    -314.2621425
C          0.40310        4.80202        1.94062
C          1.92788        4.71334        1.79148
C          2.53316        3.31780        2.05475
C          4.07440        3.37950        2.13849
C          2.10734        2.26797        1.00331
C          4.71537        2.00458        2.39612
C          2.74016        0.88903        1.26093
C          4.27390        0.96953        1.34709
H          0.08106        4.51827        2.96548
H          0.03830        5.83288        1.74985
H         -0.12579        4.13205        1.23096
H          2.22707        5.04289        0.76944
H          2.40291        5.43740        2.49172
H          2.15522        2.96666        3.04659
H          4.46426        3.79076        1.17722
H          4.38117        4.09983        2.92913
H          1.00044        2.17103        0.97772
H          2.41106        2.63422       -0.00630
H          5.82339        2.09673        2.41016
H          4.42079        1.64607        3.40967
H          2.34371        0.48265        2.22027
H          2.43254        0.17039        0.47021
H          4.68458        1.25820        0.35189
H          4.70075       -0.02999        1.58200
