27
ETHYLCYCLOHEPTANE.gamout	Energy:    -353.5336601
C          4.27145        4.13673        1.11681
C          5.76195        3.77714        1.25109
C          3.26767        3.32876        1.97459
C          3.17383        1.86100        1.48392
C          1.87974        4.01653        1.95700
C          4.20803        0.86190        2.04399
C          5.66590        1.36067        2.15822
C          6.15269        2.30106        1.03686
C          0.89282        3.51341        3.01678
H          4.15833        5.21796        1.35712
H          3.96275        4.03523        0.04929
H          6.33092        4.40883        0.53286
H          6.11820        4.08214        2.26261
H          3.62588        3.33681        3.03297
H          2.16334        1.45203        1.70373
H          3.23793        1.87939        0.37200
H          1.43920        3.89702        0.93968
H          2.02512        5.11170        2.09214
H          3.87879        0.51617        3.04940
H          4.18236       -0.04456        1.39878
H          5.80618        1.89084        3.12779
H          6.33202        0.47233        2.21559
H          7.26220        2.24730        0.98479
H          5.79038        1.94687        0.04433
H          1.29021        3.66726        4.04312
H          0.67185        2.43028        2.90826
H         -0.07700        4.04973        2.95233
