50
ETHYL_MYRISTATE.gamout	Energy:    -778.8714231
C          5.51025        0.90451       -0.95535
C          4.29906       -0.03226       -1.10147
C          4.70684       -1.51242       -1.23673
C          5.14805        2.39368       -0.81142
C          3.54677       -2.48820       -1.33927
C          6.37150        3.31477       -0.64839
O          2.69708       -2.33536       -0.28140
O          3.39326       -3.31522       -2.21961
C          6.03148        4.80773       -0.48460
C          1.54515       -3.20926       -0.23097
C          7.26522        5.71356       -0.31162
C          0.29717       -2.49393       -0.73176
C          6.94070        7.20872       -0.13330
C          8.18215        8.10295        0.04551
C          7.86959        9.59957        0.23304
C          9.11531       10.48492        0.41580
C          8.80839       11.98042        0.60320
C         10.06236       12.84587        0.78689
H          6.10725        0.58417       -0.07010
H          6.18441        0.77415       -1.83339
H          3.69909        0.26521       -1.99093
H          3.62804        0.07896       -0.22305
H          5.30581       -1.81083       -0.34650
H          5.34171       -1.67740       -2.13010
H          4.55806        2.71797       -1.69968
H          4.46991        2.52488        0.06343
H          6.96520        2.97528        0.23205
H          7.04407        3.18683       -1.52828
H          5.44468        5.15093       -1.36812
H          5.35509        4.93741        0.39215
H          1.76157       -4.10997       -0.84053
H          1.44621       -3.49880        0.83524
H          7.85600        5.35990        0.56531
H          7.93669        5.58762       -1.19278
H         -0.59287       -3.14317       -0.59798
H          0.38659       -2.25280       -1.81055
H          0.12267       -1.55125       -0.17357
H          6.35539        7.56551       -1.01257
H          6.26679        7.33649        0.74573
H          8.77041        7.73964        0.92028
H          8.85264        7.97708       -0.83644
H          7.28563        9.96561       -0.64346
H          7.19754        9.72707        1.11359
H          9.69985       10.11945        1.29243
H          9.78850       10.35811       -0.46419
H          8.22745       12.34751       -0.27379
H          8.13534       12.10855        1.48177
H          9.80401       13.91753        0.90973
H         10.63976       12.53533        1.68397
H         10.74197       12.76303       -0.08827
