11
ETHYL_FORMATE.gamout	Energy:    -268.1769643
C         -1.92275        0.16091       -5.86665
O         -2.73127        0.59613       -5.08508
O         -1.02879       -0.80318       -5.53962
H         -1.82565        0.50349       -6.93867
C         -0.11626       -1.23948       -6.57451
C          0.78215       -2.31518       -5.99076
H          0.48200       -0.37178       -6.93464
H         -0.69783       -1.63191       -7.43963
H          1.36443       -1.92192       -5.13313
H          1.49514       -2.67550       -6.76003
H          0.18443       -3.17906       -5.63662
