23
ETHYL_ISOVALERATE.gamout	Energy:    -425.3277806
C          5.18610        2.50813        1.81897
C          3.97385        1.67764        1.42207
C          6.48195        2.11829        1.08346
O          2.98568        1.78567        2.35053
O          3.86628        1.01461        0.40446
C          6.96399        0.71661        1.49469
C          7.57339        3.17714        1.31156
C          1.75965        1.07096        2.05842
C          0.79154        1.31646        3.20200
H          4.92387        3.56973        1.60485
H          5.31036        2.45261        2.92249
H          6.23868        2.08773       -0.00226
H          7.88104        0.43019        0.93861
H          7.20681        0.67818        2.57971
H          6.19327       -0.05240        1.28518
H          7.83663        3.26003        2.38898
H          8.50302        2.91817        0.76311
H          7.25005        4.18291        0.96892
H          1.36012        1.42470        1.08326
H          1.99689       -0.00753        1.93208
H         -0.16123        0.77966        3.01715
H          1.21005        0.95501        4.16349
H          0.56426        2.39658        3.30998
