62
ETHYL_STEARATE.gamout	Energy:    -936.0043282
C         -0.20006        0.50300        0.03567
C          1.08366        1.33086       -0.10962
H         20.50369       -0.44219       -0.69292
O         21.85243        2.34334        0.18667
H         25.07574       -0.80964        0.75793
H         -1.10739        1.12870       -0.09148
H         -0.24504       -0.30922       -0.72145
H         -0.26196        0.02279        1.03599
C          2.37206        0.50664        0.05173
H          1.09276        1.83137       -1.10507
H          1.08174        2.15694        0.63798
C          3.66607        1.32498       -0.09751
H          2.36464        0.00735        1.04896
H          2.37123       -0.32236       -0.69415
C          4.95700        0.50127        0.06055
H          3.67001        1.82410       -1.09467
H          3.66402        2.15331        0.64882
C          6.25221        1.31915       -0.09191
H          4.95405        0.00263        1.05797
H          4.95584       -0.32782       -0.68494
C          7.54219        0.49327        0.06481
H          6.25554        1.81825       -1.08908
H          6.25287        2.14778        0.65408
C          8.83899        1.30978       -0.08498
H          7.53789       -0.00685        1.06145
H          7.54056       -0.33417       -0.68251
C         10.12804        0.48145        0.06886
H          8.84261        1.81351       -1.07980
H          8.84106        2.13506        0.66478
C         11.42648        1.29689       -0.07513
H         10.12158       -0.02324        1.06319
H         10.12658       -0.34212       -0.68278
C         12.71441        0.46633        0.07773
H         11.43255        1.80489       -1.06779
H         11.42852        2.11922        0.67791
C         14.01468        1.27931       -0.06565
H         12.70700       -0.04017        1.07116
H         12.71189       -0.35603       -0.67527
C         15.30046        0.44611        0.09213
H         14.02353        1.78260       -1.06070
H         14.01689        2.10533        0.68321
C         16.60400        1.25221       -0.06296
H         15.29313       -0.05226        1.08970
H         15.29294       -0.38320       -0.65324
C         17.88600        0.41422        0.10384
H         16.61445        1.74157       -1.06463
H         16.61253        2.08683        0.67579
C         19.19111        1.21309       -0.05803
H         17.87654       -0.07382        1.10653
H         17.87390       -0.42264       -0.63304
C         20.44743        0.34689        0.08808
H         19.20363        1.71421       -1.05168
H         19.23531        2.03583        0.68809
C         21.74689        1.13592        0.06320
H         20.42905       -0.20926        1.05437
O         22.80940        0.30399       -0.09960
C         24.10838        0.93701       -0.11008
H         25.04958       -0.79801       -1.03789
H         26.17242        0.28647       -0.15117
C         25.15731       -0.15978       -0.13699
H         24.17737        1.60177       -0.99876
H         24.20324        1.58965        0.78406
