24
ETHYL_PHENYLACETATE.gamout	Energy:    -538.3469682
C          4.53616        1.49672        1.89443
C          4.71117        2.98013        1.53293
C          6.13684        3.48129        1.61971
O          3.25178        1.03344        1.99045
O          5.44901        0.72171        2.07400
C          6.47776        4.52058        2.50961
C          7.15269        2.92003        0.81508
C          2.10000        1.86547        1.75484
C          7.79864        4.99558        2.59343
C          8.47204        3.39205        0.89696
C          0.86195        0.99193        1.88945
C          8.80026        4.43169        1.78580
H          4.31464        3.11006        0.49872
H          4.04974        3.59854        2.17609
H          5.69686        4.96529        3.14939
H          6.90890        2.09468        0.12852
H          2.15457        2.31842        0.73923
H          2.07158        2.69948        2.49304
H          8.04470        5.80876        3.29488
H          9.25259        2.94114        0.26339
H          0.87620        0.16915        1.14690
H          0.80843        0.54359        2.90181
H         -0.05224        1.59837        1.72555
H          9.83666        4.79986        1.84943
