11
ETHYL_CHLOROFORMATE.gamout	Energy:    -727.6892325
O          3.15455        1.76191        1.99476
C          2.11401        2.50208        1.29566
C          0.73078        1.94703        1.59937
C          3.72284        0.64286        1.55205
Cl         3.18360        0.12158       -0.11963
O          4.53231        0.00558        2.15825
H          2.23295        3.53302        1.68350
H          2.33603        2.49977        0.20994
H          0.54150        1.92400        2.69132
H         -0.03943        2.59182        1.12804
H          0.61645        0.92257        1.19292
