18
ETHYL_METHACRYLATE.gamout	Energy:    -384.8181426
C          0.01743        1.42176       -0.76521
C          1.10503        0.89154       -0.15998
C          1.13523       -0.47155        0.48197
C          2.40145        1.65039       -0.08122
O          3.40395        1.20970        0.46378
O          2.34568        2.86854       -0.68514
C          3.55461        3.66451       -0.64958
C          3.66632        4.47427        0.63704
H          0.05162        2.42404       -1.21658
H         -0.93056        0.86173       -0.81897
H          0.15608       -0.98055        0.39179
H          1.91636       -1.10968        0.01779
H          1.40457       -0.39669        1.55652
H          4.42868        2.99162       -0.76947
H          3.47691        4.32532       -1.53641
H          4.56268        5.12761        0.59373
H          2.77593        5.11942        0.78289
H          3.77175        3.80659        1.51487
