18
ETHYLBENZENE.gamout	Energy:    -310.6450144
C          5.31738        0.79426        2.04330
C          4.95849        1.90565        1.03678
C          3.57211        2.48348        1.25410
C          3.37565        3.61335        2.07847
C          2.43577        1.88042        0.67000
C          2.08756        4.12499        2.31335
C          1.14577        2.38788        0.90118
C          0.96687        3.51349        1.72473
H          6.33350        0.39087        1.85095
H          4.59646       -0.04781        1.98352
H          5.29031        1.17560        3.08544
H          5.03169        1.50248        0.00289
H          5.71147        2.72082        1.10583
H          4.24976        4.10277        2.54047
H          2.56632        1.00150        0.01606
H          1.95944        5.01061        2.95656
H          0.27477        1.90464        0.42963
H         -0.04294        3.91656        1.90249
