11
ETHYL_FORMATE.gamout	Energy:    -268.1841356
C         -2.11193       -0.00577       -5.70653
O         -2.22102        0.60695       -6.74669
O         -1.19368       -0.95604       -5.43940
H         -2.76252        0.12592       -4.80348
C         -0.26398       -1.25306       -6.51402
C          0.67777       -2.33674       -6.02558
H          0.27171       -0.31927       -6.79014
H         -0.84332       -1.56687       -7.40883
H          1.24422       -2.00197       -5.13273
H          1.40679       -2.59341       -6.82089
H          0.12185       -3.25774       -5.75601
