26
ETHYL_HEXANOATE.gamout	Energy:    -464.5866361
C          0.39633       -0.18860        0.48708
C          1.90916       -0.10004        0.24975
C          2.74743       -0.57028        1.44843
C          4.26634       -0.48250        1.21809
C          5.04904       -0.96319        2.44928
C          6.58429       -1.01864        2.59926
C          8.51035        0.13904       -0.36210
C          7.17641       -0.12473        0.32140
O          7.47122       -0.63801        1.63359
O          7.04746       -1.42697        3.64515
H         -0.17791        0.15791       -0.39691
H          0.08564        0.43408        1.35324
H          0.08148       -1.23192        0.70324
H          2.18743        0.94937       -0.00040
H          2.18301       -0.70340       -0.64580
H          2.47391       -1.62099        1.70181
H          2.47765        0.03142        2.34729
H          4.52726        0.56941        0.97126
H          4.52648       -1.08680        0.32231
H          4.73484       -2.00026        2.70220
H          4.73241       -0.37178        3.33721
H          8.34781        0.53643       -1.38505
H          9.10177       -0.79557       -0.43662
H          9.10624        0.87741        0.21142
H          6.58147       -0.86322       -0.25798
H          6.58181        0.81124        0.39415
