18
ETHYL_ISOPROPYL_ETHER.gamout	Energy:    -272.7658487
C          0.99505        0.01776        0.32744
C          1.47237       -1.36826       -0.13185
C          1.94228        1.13212       -0.11832
O         -0.29121        0.34487       -0.20771
C         -1.39102       -0.31338        0.39819
C         -2.67528        0.19548       -0.24294
H          0.93061        0.02152        1.44726
H          2.46459       -1.61205        0.30220
H          0.77136       -2.17046        0.17788
H          1.55983       -1.39667       -1.23841
H          1.98562        1.17351       -1.22688
H          1.58540        2.11591        0.24698
H          2.96910        0.96278        0.26545
H         -1.32150       -1.42394        0.27827
H         -1.40048       -0.11747        1.50226
H         -2.68230       -0.02288       -1.33041
H         -3.56126       -0.28983        0.21546
H         -2.76884        1.29318       -0.11374
