20
ETHYL_NICOTINATE.gamout	Energy:    -515.1064570
O          2.14836        0.04480       -1.46471
O          1.55286       -2.14895       -1.41983
N         -1.52337        1.32509       -0.07019
C         -0.04258       -0.48326       -0.73020
C          3.45729       -0.33487       -1.95453
C          1.28038       -0.97298       -1.23536
C         -1.04554       -1.43212       -0.44539
C          4.27401        0.93140       -2.14203
C         -0.33852        0.88355       -0.52322
C         -2.28353       -0.97988        0.02751
C         -2.46914        0.40591        0.19674
H          3.92337       -1.03248       -1.22547
H          3.33582       -0.90230       -2.90250
H         -0.82723       -2.50008       -0.60262
H          3.79529        1.61184       -2.87534
H          4.38655        1.47865       -1.18412
H          5.28633        0.67646       -2.51632
H          0.42948        1.64604       -0.73878
H         -3.09645       -1.68422        0.26313
H         -3.43534        0.79481        0.56832
