58
ETHYL_INOLEATE.gamout	Energy:    -933.5427309
C         -0.43598       -0.16083       -0.82307
O         -0.99401        0.87211       -1.14765
O         -1.09207       -1.22571       -0.28626
C          1.06099       -0.41437       -0.92521
C         -2.51734       -1.05709       -0.10541
C         -3.09984       -2.38725        0.33634
H         -2.96075       -0.69660       -1.05775
H         -2.68800       -0.25741        0.64842
H          1.48774       -0.19430        0.08150
H          1.46220        0.36355       -1.60648
C          1.48315       -1.82825       -1.36316
H          1.02903       -2.05682       -2.35407
H          1.05192       -2.56895       -0.65594
C          3.00943       -2.00430       -1.44342
H          3.45897       -1.73731       -0.45807
H          3.42777       -1.26875       -2.16955
C          3.46358       -3.42169       -1.84101
H          2.99042       -3.70022       -2.81174
H          3.07077       -4.15457       -1.09841
C          4.99142       -3.58663       -1.96041
H          5.46935       -3.26971       -1.00386
H          5.37676       -2.88081       -2.73274
C          5.45016       -5.01394       -2.31074
H          4.95604       -5.33684       -3.25687
H          5.09424       -5.72554       -1.53139
C          6.98084       -5.16262       -2.46647
H          7.48139       -4.84663       -1.52555
H          7.32576       -4.44644       -3.25025
C          7.40359       -6.55260       -2.86532
C          8.22931       -7.39758       -2.21133
C          8.96770       -7.15324       -0.91464
H          8.62502       -7.91028       -0.16771
H          8.71518       -6.16133       -0.48898
C         10.46215       -7.30400       -1.09238
H          6.95997       -6.92026       -3.81007
H          8.41410       -8.38419       -2.67534
C         11.41287       -6.36086       -0.91727
C         11.23853       -4.93534       -0.46210
H         10.16233       -4.68836       -0.33545
H         11.61515       -4.25452       -1.26264
C         11.99857       -4.61346        0.84615
H         13.07480       -4.87347        0.71446
H         11.62797       -5.28293        1.65554
C         11.88236       -3.14582        1.29498
H         10.79603       -8.30212       -1.43166
H         12.45841       -6.66245       -1.11730
H         10.80597       -2.88743        1.43037
H         12.24684       -2.48225        0.47605
C         12.64732       -2.81618        2.58900
H         13.72116       -3.08112        2.45414
H         12.28030       -3.47243        3.41128
C         12.53405       -1.34767        3.01847
H         11.47769       -1.05734        3.20532
H         12.93279       -0.66292        2.23938
H         13.10102       -1.15585        3.95200
H         -2.65527       -2.72838        1.29378
H         -2.92597       -3.17471       -0.42541
H         -4.19449       -2.28652        0.48437
