15
ETHYL_ACRYLATE.gamout	Energy:    -345.5288986
O          3.78965        2.19006        1.04065
C          2.94669        1.12764        0.93167
C          1.50910        1.51772        0.99526
O          3.32805       -0.02507        0.79413
C          5.20197        1.87833        0.98903
C          1.05196        2.78042        1.10804
C          5.97689        3.16688        1.20075
H          0.82384        0.65640        0.93619
H          5.42921        1.11562        1.76465
H          5.42839        1.41030        0.00625
H          1.74778        3.63232        1.16478
H         -0.02833        2.99456        1.14489
H          5.75294        3.61217        2.19155
H          7.06629        2.96425        1.15190
H          5.72992        3.91504        0.42024
