14
ETHYL_CHLOROACETATE.gamout	Energy:    -766.9671188
Cl         0.93582       -0.01478       -1.58349
O         -1.13699        1.04518        0.45009
O          0.55985        2.22727        1.39548
C         -2.08433        2.04690        0.90398
C         -3.45997        1.65342        0.39794
C          0.15775        1.27815        0.74832
C          1.06703        0.17765        0.20747
H         -1.76090        3.03954        0.52426
H         -2.04210        2.09776        2.01361
H         -3.76217        0.66063        0.78876
H         -4.21035        2.39926        0.73070
H         -3.48083        1.61100       -0.70987
H          0.79732       -0.79516        0.66586
H          2.11123        0.43609        0.45750
