56
ETHYLPALMITATE.gamout	Energy:    -857.4367832
C         -0.21853       -0.11568       -0.30532
O         -1.08094        0.44420       -0.95835
O         -0.43662       -1.26925        0.38244
C          1.21023        0.37798       -0.13555
C         -1.77113       -1.81661        0.27807
C         -1.79941       -3.13639        1.02717
H         -2.02777       -1.93718       -0.79641
H         -2.49504       -1.08273        0.69479
H          1.25663        0.90856        0.84370
H          1.36491        1.15212       -0.91431
C          2.30536       -0.70374       -0.19341
H          2.16021       -1.32336       -1.10703
H          2.17682       -1.39755        0.66489
C          3.72815       -0.11962       -0.19412
H          3.85932        0.53664        0.69761
H          3.84651        0.55289       -1.07525
C          4.84595       -1.17909       -0.21933
H          4.68976       -1.85080       -1.09537
H          4.75504       -1.83441        0.67760
C          6.26719       -0.58923       -0.28369
H          6.42153        0.09586        0.58222
H          6.35177        0.05561       -1.18925
C          7.39314       -1.63985       -0.31060
H          7.22185       -2.33530       -1.16507
H          7.33138       -2.27281        0.60496
C          8.80765       -1.04035       -0.42428
H          8.97875       -0.33912        0.42545
H          8.86215       -0.41086       -1.34293
C          9.94204       -2.08199       -0.46082
H          9.76165       -2.78888       -1.30397
H          9.90151       -2.70450        0.46315
C         11.35050       -1.47405       -0.60465
H         11.53068       -0.76406        0.23593
H         11.38608       -0.85303       -1.52997
C         12.49069       -2.50938       -0.64794
H         12.30679       -3.22104       -1.48634
H         12.46083       -3.12806        0.27909
C         13.89567       -1.89662       -0.80474
H         14.07895       -1.18268        0.03182
H         13.92340       -1.27967       -1.73305
C         15.03807       -2.92952       -0.84927
H         14.85386       -3.64338       -1.68576
H         15.01064       -3.54664        0.07898
C         16.44257       -2.31909       -1.00807
H         16.62992       -1.60466       -0.17261
H         16.47434       -1.70433       -1.93785
C         17.57809       -3.35582       -1.04872
H         17.39203       -4.06987       -1.88352
H         17.54456       -3.96964       -0.11952
C         18.97399       -2.73880       -1.20499
H         19.20994       -2.04982       -0.36549
H         19.05661       -2.15206       -2.14503
H         19.76259       -3.51832       -1.22762
H         -1.55270       -2.99740        2.09961
H         -1.07500       -3.85682        0.59521
H         -2.81212       -3.58399        0.96252
