15
ETHYL_CYANOACETATE.gamout	Energy:    -399.6309410
C         -0.35290        0.17946       -0.08611
C          1.11954        0.53510       -0.19571
O          1.26633        1.92646        0.18234
C          2.44298        2.59136        0.12919
O          2.49949        3.76587        0.41166
C          3.70548        1.81001       -0.33309
C          4.13521        0.74637        0.57501
N          4.47261       -0.10458        1.30761
H         -0.50570       -0.88151       -0.37019
H         -0.71720        0.31654        0.95171
H         -0.96640        0.81432       -0.75636
H          1.48224        0.39230       -1.23868
H          1.73715       -0.10156        0.47325
H          3.53951        1.37303       -1.34225
H          4.51183        2.56438       -0.42326
