19
ETHYL_N-PROPYL_KETONE.gamout	Energy:    -310.8598710
C         -0.80545       -0.58944        0.00000
C         -1.98926        0.38359        0.00000
C         -3.35229       -0.31868       -0.00000
C          0.56593        0.08995        0.00000
O          0.68029        1.30799        0.00000
C          1.78871       -0.83129        0.00000
C          3.12406       -0.08758       -0.00000
H         -0.84900       -1.27282        0.88104
H         -0.84900       -1.27282       -0.88104
H         -1.89760        1.05386        0.88146
H         -1.89760        1.05386       -0.88146
H         -4.18378        0.41626       -0.00000
H         -3.47985       -0.96523       -0.89483
H         -3.47985       -0.96523        0.89482
H          1.69796       -1.50926        0.88038
H          1.69796       -1.50927       -0.88037
H          3.97504       -0.79861       -0.00000
H          3.21499        0.56592       -0.89061
H          3.21499        0.56592        0.89061
