29
ETHYL_HEPTANOATE.gamout	Energy:    -503.8691791
C          1.27985       -0.01933        0.04701
C          0.55067        0.31922        1.36480
O          1.17641        0.61840        2.54072
O         -0.66368        0.32420        1.36683
C          2.79934       -0.08589       -0.16878
C          2.59276        0.68540        2.78722
C          3.14520       -0.44807       -1.62373
C          2.77386        1.06257        4.25055
C          4.65330       -0.52602       -1.90168
C          5.00296       -0.87933       -3.35576
C          6.51102       -0.95069       -3.62510
H          0.84110        0.70305       -0.67690
H          0.82562       -0.99152       -0.24783
H          3.26237       -0.83773        0.50639
H          3.27635        0.88799        0.07576
H          3.06360        1.44538        2.12716
H          3.07192       -0.29464        2.57519
H          2.68255        0.30081       -2.30772
H          2.66895       -1.42179       -1.88500
H          2.29996        2.04178        4.46360
H          3.85270        1.13070        4.49995
H          2.30703        0.30428        4.91098
H          5.11656       -1.27569       -1.21851
H          5.12639        0.44916       -1.63815
H          4.53768       -0.12859       -4.03469
H          4.52936       -1.85257       -3.62027
H          7.00713        0.01956       -3.40721
H          6.72734       -1.20510       -4.68338
H          7.00016       -1.72009       -2.98980
