18
ETHYL_N-PROPYL_SULFIDE.gamout	Energy:    -595.7146322
S          2.06565        2.59836        1.85350
C          1.99208        1.18650        3.03455
C          0.53259        0.82164        3.31168
C          3.87365        2.91474        1.79492
C          4.69928        1.88519        1.01060
C          6.19261        2.23866        0.95944
H          2.51000        1.48523        3.97296
H          2.53541        0.31432        2.61147
H          0.47173       -0.02706        4.02489
H          0.00914        0.51876        2.38075
H         -0.02124        1.67741        3.75036
H          4.24795        3.02177        2.83863
H          3.95999        3.91881        1.32496
H          4.28532        1.81019       -0.01883
H          4.57265        0.87995        1.46987
H          6.63487        2.29046        1.97785
H          6.36243        3.22402        0.47443
H          6.76848        1.48272        0.38602
