29
EUCALYPTOL.gamout	Energy:    -466.7815873
C         -1.15627        0.61083       -0.29616
C         -2.27193        1.12196        0.66658
C         -0.98829        1.51378       -1.53440
H         -1.92423        1.58579       -2.12167
H         -0.21158        1.08592       -2.20046
H         -0.67325        2.53943       -1.24742
C          0.20928        0.47246        0.40239
H          0.95198        0.06766       -0.31503
H          0.16668       -0.22435        1.26223
H          0.57829        1.45496        0.76587
C         -3.62951        1.16086       -0.07101
C         -3.92122       -0.25048       -0.65753
H         -3.63565        1.93500       -0.86451
H         -4.41720        1.46278        0.65205
C         -2.78577       -1.21965       -0.24849
H         -3.96763       -0.22752       -1.76659
H         -4.89767       -0.64362       -0.30194
C         -2.95128       -2.60530       -0.87096
H         -3.89211       -3.08673       -0.53357
H         -2.09894       -3.25510       -0.58604
H         -2.96998       -2.53024       -1.97744
C         -2.42381        0.14573        1.85665
C         -2.69086       -1.28097        1.29618
H         -3.26585        0.49043        2.49346
H         -1.52380        0.16345        2.50322
H         -1.99896        2.13605        1.02969
H         -3.62930       -1.70926        1.70909
H         -1.87397       -1.98312        1.56555
O         -1.53823       -0.71181       -0.77505
