46
FENOFIBRATE.gamout	Energy:   -1535.0069982
C          0.18832        4.95099       -4.45170
C          0.69390        3.65574       -4.64936
C         -0.99722        5.15858       -3.72324
Cl         1.03587        6.32329       -5.13106
C          0.01868        2.56092       -4.08947
C         -1.67129        4.05493       -3.19096
C         -1.16602        2.74393       -3.34417
C         -1.99460        1.61066       -2.78925
O         -3.21974        1.74781       -2.71433
C         -1.35093        0.34125       -2.32062
C         -2.17623       -0.80286       -2.17702
C         -0.00612        0.24191       -1.90545
C         -1.66827       -1.99582       -1.67211
C          0.51667       -0.95070       -1.37925
C         -0.31436       -2.08831       -1.26257
O          0.04451       -3.30144       -0.76069
C          1.41705       -3.68432       -0.48626
C          1.28116       -5.08913        0.11110
C          2.26255       -3.71770       -1.76048
C          2.07042       -2.76002        0.57882
O          3.13895       -2.19334        0.41736
O          1.32801       -2.71781        1.70135
C          1.82938       -1.92800        2.83215
C          0.81555       -0.82874        3.11412
C          2.03452       -2.88640        3.99889
H          1.60590        3.51021       -5.24401
H         -1.38195        6.17880       -3.58753
H          0.40727        1.54795       -4.26858
H         -2.61666        4.18613       -2.64297
H         -3.23321       -0.71809       -2.47140
H          0.65146        1.12202       -1.95564
H         -2.29950       -2.89023       -1.56780
H          1.56594       -0.97094       -1.05910
H          2.27676       -5.49480        0.37877
H          0.64931       -5.05883        1.01740
H          0.80973       -5.75976       -0.63309
H          3.27813       -4.08906       -1.52506
H          2.37724       -2.71955       -2.21965
H          1.79159       -4.39847       -2.49595
H          2.79919       -1.49476        2.51059
H          1.15973       -0.20799        3.96717
H          0.69246       -0.16616        2.23595
H         -0.17577       -1.25521        3.37287
H          2.43311       -2.33697        4.87629
H          2.76022       -3.68060        3.73576
H          1.07879       -3.36594        4.29673
