31
FISETIN.gamout	Energy:   -1028.2177190
O         -0.50181       -0.60668       -0.04996
O          0.42034        2.89407        0.56440
O         -2.29200        3.05655        0.56574
O         -4.61467       -2.82981       -0.68462
O          4.01999       -2.12837       -1.51489
O          5.81020       -0.75954        0.11462
C          0.26813        0.50383        0.21086
C         -2.52688        0.71297        0.12198
C         -1.86036       -0.51464       -0.09664
C          1.70819        0.19104        0.20126
C         -0.29928        1.75513        0.39232
C         -1.76870        1.95239        0.38334
C         -3.93881        0.72184        0.05931
C         -2.56060       -1.70144       -0.36519
C          2.19411       -0.83960       -0.63901
C          2.63422        0.89880        1.00902
C         -3.96153       -1.66624       -0.42179
C         -4.65079       -0.44259       -0.20769
C          3.55810       -1.14282       -0.67866
C          3.99990        0.58284        0.98143
C          4.47079       -0.44030        0.14963
H         -4.44615        1.68441        0.22712
H         -2.02042       -2.64323       -0.52640
H          1.50816       -1.40148       -1.28653
H          2.27498        1.64636        1.73118
H         -5.75223       -0.42435       -0.25378
H          4.71632        1.10451        1.63200
H          1.36362        2.69183        0.38873
H         -5.57418       -2.65013       -0.68942
H          4.92996       -1.87788       -1.77982
H          5.88119       -1.73582        0.06851
