30
FLUFENAMIC_ACID.gamout	Energy:   -1043.5277766
F          3.40868       -2.16987       -0.30525
F          5.00314       -0.78539        0.26634
F          3.48427       -1.37599        1.72393
O         -4.86584        1.33517        0.93912
O         -2.93045        2.39132        0.48523
N         -0.84697        0.92412       -0.25791
C          0.54903        0.99465       -0.32631
C         -1.69582       -0.16568       -0.28526
C          2.80765        0.10880       -0.00754
C          1.41186       -0.04993        0.07934
C         -3.07602        0.00824        0.10079
C          1.12935        2.21173       -0.77526
C          3.37455        1.30896       -0.46832
C         -1.28936       -1.45748       -0.72300
C          2.51861        2.36322       -0.83640
C         -3.95750       -1.10036        0.07103
C          3.68349       -1.05088        0.41876
C         -2.18800       -2.52703       -0.74635
C         -3.52854       -2.36456       -0.33786
C         -3.57729        1.33602        0.51206
H         -1.35771        1.81068       -0.07499
H          1.00019       -0.97823        0.49777
H          0.46782        3.03696       -1.08363
H          4.46600        1.41730       -0.53278
H         -0.26275       -1.61084       -1.08108
H          2.94446        3.31568       -1.18909
H         -5.00165       -0.93890        0.37469
H         -1.83505       -3.50899       -1.10071
H         -4.22798       -3.21364       -0.35258
H         -5.06149        2.27206        1.16089
