8
FLUOROETHANE.gamout	Energy:    -178.9173600
C         -0.00618        9.99846        0.00010
C          1.30311        9.22876       -0.00010
F          2.38476       10.10656        0.00010
H         -0.86717        9.29733       -0.00006
H         -0.08645       10.64418        0.89849
H         -0.08647       10.64460       -0.89799
H          1.38538        8.57803       -0.90143
H          1.38540        8.57758        0.90091
