26
FLUORANTHENE.gamout	Energy:    -615.3052939
C          3.94588        0.75187        1.96993
C          5.22317        0.96554        1.36741
C          6.39873        1.05309        2.11444
C          3.86914        0.62573        3.35432
C          2.78684        0.40406        4.33503
C          5.07688        0.71708        4.10505
C          6.35504        0.92811        3.53803
C          4.83220        0.56803        5.50016
C          7.44845        0.99059        4.45681
C          7.22248        0.84599        5.82597
C          5.91880        0.63348        6.36808
C          3.37581        0.36944        5.64477
C          1.40455        0.23882        4.18063
C          2.57141        0.17091        6.77424
C          1.18398        0.00596        6.60648
C          0.60744        0.03939        5.32365
H          3.04910        0.69042        1.33419
H          5.27851        1.06450        0.27213
H          7.36184        1.21886        1.60657
H          8.47155        1.15294        4.08370
H          8.07859        0.89707        6.51645
H          5.79614        0.52556        7.45663
H          0.94412        0.26355        3.18147
H          3.01377        0.14298        7.78162
H          0.54360       -0.15086        7.48785
H         -0.47972       -0.09179        5.21262
