31
FLURBIPROFEN.gamout	Energy:    -829.1349954
F         -0.27257       -1.14179        1.40305
O          4.61772        1.35404       -1.05104
O          4.58916        0.23750        0.91645
C          3.20662        2.24032        0.66968
C          1.78118        1.72290        0.46456
C         -0.92473        0.79347        0.15868
C          1.38122        0.48184        1.00086
C          0.82225        2.49456       -0.22363
C          0.06166        0.04565        0.84626
C         -0.49456        2.03468       -0.37024
C          3.46986        2.64648        2.13406
C         -2.33289        0.33436        0.00919
C          4.20667        1.16911        0.23023
C         -2.65356       -1.02375       -0.23639
C         -3.39616        1.26784        0.08074
C         -3.98641       -1.42719       -0.41166
C         -4.72860        0.86244       -0.09495
C         -5.03008       -0.48740       -0.34555
H          3.34784        3.11592        0.00384
H          2.09174       -0.16054        1.54316
H          1.11088        3.46404       -0.66037
H         -1.21782        2.64209       -0.93662
H          2.72067        3.39164        2.46788
H          3.40821        1.76031        2.79624
H          4.48208        3.08589        2.24972
H         -1.84773       -1.76900       -0.29539
H         -3.17552        2.32428        0.30182
H         -4.20996       -2.48832       -0.60667
H         -5.53731        1.60800       -0.03096
H         -6.07516       -0.80684       -0.48446
H          5.21931        0.60027       -1.24758
