6
FORMAMIDE.gamout	Energy:    -169.7732898
N         34.00164        0.01937       -0.00000
C         32.79222        0.65937        0.00000
O         31.70244        0.10878       -0.00000
H         34.88134        0.53584       -0.00000
H         34.02507       -1.00305        0.00000
H         32.91823        1.78326        0.00000
