12
FUMARIC_ACID.gamout	Energy:    -455.4180549
C          2.90215        1.34573        0.52595
C          3.57601        2.45339        0.90232
C          1.44626        1.20119        0.81569
C          5.03190        2.59796        0.61256
O          0.97205        0.01416        0.35132
O          0.75029        2.02146        1.39081
O          5.50579        3.78558        1.07573
O          5.72819        1.77710        0.03869
H          3.42055        0.52945       -0.00295
H          3.05763        3.26967        1.43124
H          0.01625       -0.00019        0.58119
H          6.46164        3.79984        0.84609
