9
FURAN.gamout	Energy:    -229.8576614
C          1.86649        2.63405        0.03056
C          1.07870        1.50626        0.05844
O          1.85612        0.38296        0.09385
C          3.15925        0.79421        0.08848
C          3.22888        2.16784        0.05018
H          1.51970        3.67369       -0.00027
H         -0.00355        1.33764        0.05796
H          3.91074       -0.00223        0.11450
H          4.14089        2.77627        0.03742
