13
FURFURYL_ALCOHOL.gamout	Energy:    -344.3027114
O         -4.51708        1.59554        0.24786
C         -4.74883        0.34920        0.88205
C         -5.57893       -0.57238        0.03330
C         -6.49946       -0.33577       -0.96691
O         -5.44739       -1.92102        0.23781
C         -6.96450       -1.62681       -1.40055
C         -6.29572       -2.55140       -0.63229
H         -4.09116        1.39967       -0.60923
H         -3.80875       -0.18603        1.17104
H         -5.27583        0.58862        1.83334
H         -6.80537        0.65035       -1.33372
H         -7.70116       -1.84094       -2.18390
H         -6.30303       -3.64538       -0.58345
