11
FURFURAL.gamout	Energy:    -343.1057736
C         -5.42532       -0.74586       -0.39879
O         -4.93113       -1.90338       -0.95823
C         -6.81092       -0.73728       -0.48923
C         -4.45845        0.20112        0.15275
C         -5.99299       -2.61936       -1.39780
C         -7.17833       -1.95353       -1.13751
O         -4.76200        1.26489        0.67686
H         -7.46284        0.06398       -0.12315
H         -3.38523       -0.14200        0.05067
H         -5.76167       -3.57924       -1.87381
H         -8.18741       -2.30305       -1.38556
