11
FURFURAL.gamout	Energy:    -343.1042370
C         -5.66362       -0.50414       -0.19215
O         -5.04668       -1.55487       -0.82633
C         -7.03859       -0.58609       -0.38518
C         -4.84915        0.46963        0.53542
C         -6.01728       -2.29371       -1.41382
C         -7.26729       -1.75017       -1.17972
O         -3.63151        0.44320        0.64055
H         -7.78661        0.11525        0.00426
H         -5.47706        1.28353        1.01167
H         -5.67732       -3.17792       -1.96539
H         -8.22729       -2.14159       -1.53585
