12
G-BUTYROLACTONE.gamout	Energy:    -306.2678809
O         -0.06593        0.02629        1.40189
C          0.88807        0.75923        1.29915
C          0.90232        2.25890        0.98153
O          2.17479        0.31460        1.46478
C          2.38213        2.67511        0.97890
C          3.14917        1.35798        1.29705
H          0.28569        2.77784        1.74365
H          0.38785        2.41020        0.01062
H          2.59636        3.45221        1.73892
H          2.69466        3.08965        0.00014
H          3.83653        1.05562        0.47891
H          3.74312        1.42508        2.23296
