15
G-VALEROLACTONE.gamout	Energy:    -345.5597580
C         -0.81944       -0.95973       -0.15518
C         -1.44323       -2.08024        0.66146
O          0.62293       -0.96296        0.03954
C         -1.25751        0.47314        0.21744
C          1.13059        0.31463        0.02277
C         -0.02889        1.29928       -0.17198
O          2.31029        0.54504        0.13768
H         -0.99835       -1.14083       -1.24190
H         -1.23800       -1.93736        1.74238
H         -1.04068       -3.06691        0.35712
H         -2.54254       -2.09301        0.50959
H         -1.42935        0.53280        1.31414
H         -2.19753        0.77052       -0.28888
H          0.14485        2.22159        0.41454
H         -0.04441        1.58998       -1.24634
