29
GERANIOL.gamout	Energy:    -466.7205435
C         -3.09493        2.81767       -0.06820
C         -1.68577        2.27407       -0.05557
C         -0.53241        2.98231       -0.04423
C          0.80699        2.23748       -0.03258
C         -0.52330        4.49508       -0.04276
H         -0.00072        4.90165        0.85107
H         -1.54387        4.92409       -0.05144
H          0.01551        4.90357       -0.92597
C          2.09198        3.08538       -0.02218
H          0.84717        1.56035       -0.91601
H          0.83221        1.56053        0.85158
C          3.33794        2.22041       -0.01170
H          2.09146        3.76093        0.86377
H          2.10531        3.76011       -0.90864
C          4.62646        2.64088       -0.00229
C          5.02463        4.09848       -0.00103
H          4.15984        4.78916       -0.00878
H          5.65863        4.33620       -0.88515
H          5.64469        4.33860        0.89226
C          5.77333        1.65646        0.00723
H          6.43483        1.79829       -0.87744
H          5.41918        0.60604        0.00552
H          6.42211        1.79958        0.90109
H          3.16358        1.12730       -0.01185
H         -1.64585        1.16909       -0.05654
O         -3.98696        1.70845       -0.07871
H         -3.24860        3.47642       -0.96395
H         -3.26618        3.47323        0.82669
H         -4.89438        2.06214       -0.08803
