19
GLUTAMIC_ACID.gamout	Energy:    -551.2321781
C          2.68279        1.81619       -0.17351
C          3.87629        0.99751        0.34834
C          5.19119        1.66688       -0.06434
N          3.82503       -0.39533       -0.11024
C          1.33715        1.25294        0.28561
O          5.33580        2.84537       -0.32289
O          6.23435        0.78830       -0.04919
C          0.14978        2.07321       -0.18837
O          0.20153        3.11426       -0.81544
O         -1.02821        1.49665        0.18302
H          2.71838        1.83037       -1.28252
H          2.79204        2.86790        0.15789
H          3.17290       -0.92988        0.47780
H          4.74629       -0.83211        0.02324
H          1.27126        1.19054        1.39633
H          1.18890        0.21336       -0.08089
H          7.02724        1.31514       -0.29526
H         -1.73036        2.09424       -0.15845
H          3.89079        1.09129        1.47198
