17
GLUTARIC_ACID.gamout	Energy:    -495.9250971
C          2.54821        4.15794        0.06416
C          3.35491        3.24327        1.00633
C          4.84771        3.62479        1.05130
C          1.07263        3.80390       -0.00035
C          5.66433        2.74633        1.98298
O          0.48495        3.88857        1.22736
O          0.45887        3.47672       -0.99822
O          5.60908        1.43470        1.61338
O          6.29499        3.12638        2.95123
H          2.62933        5.21167        0.41279
H          2.93649        4.11355       -0.97262
H          2.92373        3.30315        2.02750
H          3.26010        2.18711        0.67740
H          5.28342        3.54142        0.03096
H          4.98533        4.66944        1.39412
H         -0.45465        3.63503        1.08578
H          6.15290        0.95297        2.27625
