14
GLUTARIC_ANHYDRIDE.gamout	Energy:    -419.5345210
O         -0.05221        2.67084        1.57582
C          1.15136        2.62871        1.57825
O          1.76452        1.37751        1.41513
C          2.07251        3.82218        1.76378
C          3.14452        1.12789        1.37720
C          3.43036        3.64227        1.07986
O          3.50587       -0.01148        1.23024
C          4.06270        2.32692        1.54605
H          2.20760        3.95315        2.86247
H          1.51766        4.71343        1.41103
H          4.09830        4.49626        1.31208
H          3.30006        3.63164       -0.02415
H          5.00766        2.08547        1.02155
H          4.31340        2.38307        2.63076
