13
GLUTARONITRILE.gamout	Energy:    -303.3840900
C         -5.36659        0.87435       -0.00071
C         -4.15156        1.69527        0.01953
C         -2.85472        0.85678       -0.00762
H         -4.18237        2.33715        0.92808
H         -4.18848        2.38740       -0.85122
C         -1.60281        1.76115        0.02512
H         -2.83607        0.22531       -0.91971
H         -2.83821        0.16536        0.86001
C         -0.34744        1.00347        0.00323
H         -1.60591        2.39924        0.93688
H         -1.60125        2.45859       -0.84217
N         -6.33103        0.20961       -0.02443
N          0.64670        0.38380       -0.01429
