10
GLYCINE.gamout	Energy:    -284.2245413
N         -0.36867        1.00480        0.17249
C          0.73877        1.86326       -0.21258
C          2.05725        1.13017       -0.01979
O          3.10578        1.98513        0.08642
O          2.17941       -0.08119       -0.01071
H         -0.18164        0.05586       -0.18257
H         -1.24102        1.32617       -0.26285
H          0.76305        2.79842        0.38912
H          0.75885        2.20101       -1.28625
H          3.90709        1.41787        0.14482
