26
GLYCEROL_2-TERT-BUTYL_ETHER.gamout	Energy:    -501.6444768
C          1.30009        0.25469        0.78492
C          0.02007        0.11376        1.62508
C          1.51985        1.70402        0.34844
O          2.39208       -0.18553        1.58883
O         -1.09796        0.51014        0.83972
O          2.51027        1.74539       -0.67091
C          4.28870       -1.38821        2.24423
C          3.18879       -1.32437        1.17138
C          2.34517       -2.61446        1.19561
C          3.81600       -1.09931       -0.21699
H          1.18415       -0.35845       -0.13839
H         -0.05380       -0.94940        1.95764
H          0.13673        0.73864        2.54604
H          0.53842        2.10295       -0.00261
H          1.82843        2.28158        1.25614
H         -1.89146        0.45366        1.40187
H          2.63570        2.67855       -0.91994
H          3.83823       -1.51704        3.24959
H          4.87012       -0.44436        2.24657
H          4.98229       -2.23307        2.05616
H          1.90010       -2.77050        2.20012
H          2.97176       -3.49926        0.95629
H          1.52287       -2.58230        0.45034
H          4.36350       -0.13748       -0.23762
H          3.04912       -1.05521       -1.01606
H          4.51382       -1.92702       -0.46182
