26
GLYCEROL_1-TERT-BUTYL_ETHER.gamout	Energy:    -501.6454842
C          0.73140       -0.07705        0.12680
C          0.15542        1.10135       -0.65149
C          0.03962       -1.39816       -0.24819
O          2.12460       -0.17027       -0.16391
O          0.58110        2.30033       -0.03218
O         -1.33027       -1.33587        0.12207
C          1.09483        3.66029       -2.01313
C          0.29453        3.55125       -0.69816
C         -1.21699        3.71610       -0.95524
C          0.78123        4.60840        0.30580
H          0.54847        0.12327        1.21058
H         -0.95516        0.99907       -0.65706
H          0.51523        1.01743       -1.70702
H          0.57969       -2.22517        0.28077
H          0.18276       -1.57229       -1.34446
H         -1.76050       -2.15437       -0.18408
H          0.75833        2.91831       -2.76636
H          2.17306        3.48932       -1.81832
H          0.97142        4.66686       -2.46339
H         -1.59487        2.98742       -1.70178
H         -1.43683        4.73175       -1.34420
H         -1.78563        3.57429       -0.01307
H          1.85950        4.46193        0.51886
H          0.22791        4.51104        1.26208
H          0.63218        5.63420       -0.08852
H          2.54337       -0.67447        0.55729
