41
GRISEOFULVIN.gamout	Energy:   -1568.6457926
Cl         2.13047       -3.12157       -0.57445
O         -0.25697       -1.24099       -0.51885
O         -1.32558       -0.99560        1.87619
O         -1.09129        2.17124        0.10303
O         -5.47193        0.25381       -0.15454
O          2.31054        2.80053        0.06949
O          4.48489       -1.42647       -0.17535
C         -1.28683       -0.23100       -0.36616
C         -2.15824       -0.22493       -1.64974
C         -3.44524        0.58953       -1.42703
C         -0.50981        1.11338       -0.12928
C         -2.11178       -0.56887        0.86884
C         -1.38505        0.22920       -2.89527
C          0.91027        0.76281       -0.21837
C          0.95525       -0.65712       -0.37548
C         -4.24756        0.14044       -0.20701
C         -3.46678       -0.39143        0.92318
C          2.14701        1.46801       -0.07286
C          2.14088       -1.39437       -0.37418
C          3.34589        0.72417       -0.04466
C          3.35924       -0.68133       -0.18611
C         -1.93152       -1.30517        3.13017
C          1.39219        3.72462       -0.53378
C          5.74075       -0.78485        0.02021
H         -2.44532       -1.29220       -1.78943
H         -4.10689        0.53416       -2.31508
H         -3.18760        1.66148       -1.27241
H         -1.11149        1.30351       -2.83656
H         -0.45884       -0.36325       -3.03815
H         -2.01325        0.09505       -3.79933
H         -4.04548       -0.61904        1.83028
H          4.27787        1.29328        0.06356
H         -1.11010       -1.61413        3.80220
H         -2.66088       -2.13771        3.02671
H         -2.44940       -0.41757        3.55499
H          0.36605        3.61007       -0.13140
H          1.37399        3.58054       -1.63705
H          1.79334        4.73087       -0.30900
H          5.78045       -0.24889        0.99398
H          5.96716       -0.06848       -0.80029
H          6.49821       -1.59045        0.01697
