17
GUAIACOL.gamout	Energy:    -421.6811036
O          0.28199        0.84871       -0.45044
O         -0.49675       -1.66869       -0.48156
C         -1.04788        0.63665       -0.23158
C         -1.46097       -0.73030       -0.25104
C         -2.00646        1.63990        0.00235
C         -2.81261       -1.04479       -0.03794
C         -3.36103        1.30691        0.21495
C         -3.76580       -0.03347        0.19488
C          0.75756        2.18207       -0.44835
H         -1.70011        2.69553        0.01957
H         -3.11905       -2.10538       -0.05571
H         -4.09413        2.10810        0.39576
H         -4.82010       -0.30420        0.35904
H          0.28010        2.79751       -1.24589
H          1.84572        2.12610       -0.64303
H          0.59257        2.68481        0.53294
H         -0.92412       -2.54601       -0.46632
