49
HALOPERIDOL.gamout	Energy:   -1578.4006318
Cl         9.24424       -0.88747       -0.28501
F         -9.38260        0.32656       -0.26231
O          3.27761        2.08897       -0.33279
O         -3.16072       -0.08296       -1.33168
N          0.58655       -0.04373        0.80105
C          3.36262        0.72840        0.11280
C          2.47908       -0.17261       -0.79390
C          2.83827        0.62229        1.57142
C          0.98514        0.11440       -0.59796
C          1.32814        0.87797        1.65636
C         -0.86317        0.00836        0.99765
C          4.83644        0.32487        0.02099
C         -1.56150       -1.30829        0.61629
C          5.26166       -0.97096        0.38965
C          5.80662        1.23777       -0.44111
C         -3.08645       -1.25455        0.76859
C          6.60963       -1.35076        0.29968
C          7.16035        0.87438       -0.53737
C         -3.79258       -0.49952       -0.36245
C          7.55562       -0.42148       -0.16731
C         -5.28162       -0.29832       -0.28039
C         -6.07424       -0.75906        0.79748
C         -5.91336        0.37886       -1.35125
C         -7.46112       -0.55097        0.80927
C         -7.29495        0.59464       -1.35487
C         -8.05290        0.12419       -0.26932
H          2.67225       -1.24108       -0.56286
H          2.76792        0.00356       -1.85097
H          3.39216        1.35197        2.19850
H          3.04367       -0.39317        1.97033
H          0.38603       -0.57022       -1.23213
H          0.74462        1.15528       -0.96671
H          0.98664        0.74950        2.70605
H          1.10740        1.95779        1.39718
H         -1.05190        0.20790        2.07604
H         -1.32869        0.85985        0.43368
H         -1.14253       -2.12152        1.24482
H         -1.32966       -1.55785       -0.44013
H          2.34827        2.37031       -0.23195
H          4.53453       -1.71192        0.75990
H          5.48548        2.25009       -0.72237
H         -3.37787       -0.80631        1.74604
H         -3.50977       -2.28479        0.78810
H          6.93150       -2.36252        0.58733
H          7.91188        1.59260       -0.89772
H         -5.61322       -1.29159        1.64277
H         -5.27727        0.72623       -2.18001
H         -8.09439       -0.90248        1.63746
H         -7.80132        1.11830       -2.17975
