12
HEA+1.gamout	Energy:    -210.5831171
N        -19.17050      -12.49410       -2.35346
C        -20.09549      -12.34142       -1.16208
C        -21.38935      -13.14502       -1.33908
H        -19.54205      -12.68318       -0.26575
H        -20.31773      -11.26200       -1.05184
O        -22.11608      -12.87691       -0.17308
H        -21.14055      -14.23045       -1.46989
H        -21.91212      -12.81146       -2.27379
H        -22.95764      -13.37123       -0.18985
H        -18.29650      -11.94517       -2.23594
H        -18.89118      -13.48432       -2.50352
H        -19.61772      -12.17045       -3.23461
