27
HEMPA.gamout	Energy:   -1423.7009165
N         -2.39491        2.59739        1.68156
C         -1.29420        1.64878        1.85570
C         -0.36454        1.59642        0.64295
H         -0.68921        1.87891        2.76935
H         -1.73098        0.63886        1.99229
H         -0.95248        1.22036       -0.22818
O          0.71904        0.74792        0.99106
H         -0.02333        2.62885        0.37791
H          1.23136        0.56933        0.18228
C         -2.08442        3.99485        1.87548
C         -3.68948        2.15806        2.16896
P         -2.54249        5.04568        0.43659
H         -0.99417        4.14317        2.02781
H         -2.58652        4.45292        2.76361
O         -4.08321        4.46468        0.10049
O         -1.61406        4.41721       -0.76362
P         -4.47161        0.95851        1.00429
H         -3.65855        1.68366        3.18263
H         -4.38109        3.02101        2.23712
H         -4.66720        5.22551       -0.09961
H         -1.43453        5.11189       -1.43022
O         -4.52542        1.74795       -0.42170
H         -4.43039        2.72953       -0.30975
O         -6.01133        0.98559        1.61299
H         -6.41430        0.10335        1.47834
O         -3.87727       -0.41898        0.90714
O         -2.51631        6.54164        0.57042
