15
HEPTAFLUOROPROPYL_METHYL_ETHER.gamout	Energy:    -927.6408569
F          1.99933        0.15024        0.36144
F          0.43128        1.24511        1.47326
F         -0.11780        2.75708       -0.80919
F          1.43849        1.67918       -1.91092
F          0.09410       -0.67996       -1.47496
F         -1.45122        0.40697       -0.37354
F         -0.34155       -1.20354        0.60137
O          2.01364        2.84446       -0.06249
C          0.82799        0.82572        0.24434
C          1.06921        2.08484       -0.65250
C         -0.24848       -0.18521       -0.27285
C          2.37057        4.06380       -0.74484
H          1.49180        4.73433       -0.83228
H          2.78264        3.84578       -1.75092
H          3.14489        4.54134       -0.11875
