12
HEXACHLOROBENZENE.gamout	Energy:   -2989.0477634
C          6.34355        1.87364       -0.67428
C          6.88617        0.61022       -0.33698
C          4.93968        2.05049       -0.72355
Cl         7.39698        3.20206       -1.02675
Cl         4.27576        3.59564       -1.13649
C          4.07876        0.96408       -0.43552
C          4.62138       -0.29934       -0.09822
Cl         2.36170        1.18099       -0.49594
Cl         3.56795       -1.62777        0.25425
C          6.02525       -0.47617       -0.04889
Cl         6.68916       -2.02134        0.36400
Cl         8.60322        0.39331       -0.27655
