18
HEXANENITRILE.gamout	Energy:    -289.7827643
N          3.62849        0.44613        0.01525
C         -1.27843       -0.40303       -0.01036
C          0.09400        0.28435       -0.02779
C         -2.45668        0.58537       -0.01219
C          1.26474       -0.72608       -0.00292
C         -3.82899       -0.09708        0.03131
C          2.58507       -0.08757        0.00750
H         -1.36561       -1.08057       -0.89111
H         -1.35187       -1.06254        0.88530
H          0.18956        0.92365       -0.93249
H          0.19053        0.96796        0.84369
H         -2.38632        1.23060       -0.91714
H         -2.35104        1.27436        0.85621
H          1.21203       -1.40053       -0.88648
H          1.18829       -1.38414        0.89122
H         -3.94486       -0.71860        0.94494
H         -3.97858       -0.76545       -0.84350
H         -4.65309        0.64603        0.02737
