11
HEXACHLOROCYCLOPENTADIENE.gamout	Energy:   -2950.9320980
C         -3.06894       -0.72433        0.38950
C         -3.01306        0.74071        0.12912
C         -1.83611       -1.26729        0.18372
Cl        -4.49843       -1.53766        0.87122
C         -1.74660        1.08735       -0.23506
Cl        -4.37244        1.77290        0.28332
C         -0.87437       -0.16195       -0.23451
Cl        -1.34720       -2.89769        0.34037
Cl        -1.13772        2.63157       -0.64283
Cl         0.46956       -0.00027        0.96032
Cl        -0.21622       -0.48093       -1.88541
