15
HEXAFLUOROACETYLACETONE.gamout	Energy:    -940.5197820
C         -1.37880       -0.02828        0.64427
C          0.06057       -0.50860        0.52368
C          0.96585        0.55351       -0.11045
C         -2.25000       -0.26273       -0.63121
O         -1.85626        0.48149        1.63155
C          2.32449       -0.00555       -0.64608
O          0.70902        1.73238       -0.18709
F         -2.50482       -1.59203       -0.74702
F         -3.40683        0.39686       -0.57163
F         -1.57346        0.12422       -1.74183
F          3.08038        0.95831       -1.17260
F          3.00253       -0.59597        0.36952
F          2.08351       -0.94779       -1.59056
H          0.45388       -0.70317        1.54483
H          0.12956       -1.45082       -0.05861
