24
HEXAMETHYLENEDIAMINE.gamout	Energy:    -347.5031072
C         17.89632        0.00455        0.02076
C         19.24211        0.74044        0.01820
N         16.77972        0.95350       -0.03863
C         20.46210       -0.19163        0.02406
C         21.80829        0.54889        0.02427
C         23.02829       -0.38317        0.01803
C         24.37407        0.35272        0.02104
N         25.49068       -0.59620       -0.03871
H         17.84147       -0.64630       -0.88139
H         17.87121       -0.69549        0.89950
H         19.28893        1.41450        0.90622
H         19.27196        1.40893       -0.87082
H         15.88619        0.44352       -0.06849
H         16.74982        1.50147        0.83380
H         20.41438       -0.86339       -0.86406
H         20.41297       -0.86497        0.91125
H         21.85739        1.22181        0.91178
H         21.85608        1.22106       -0.86353
H         22.99852       -1.05123       -0.87132
H         22.98141       -1.05767        0.90572
H         24.39911        1.05235        0.90012
H         24.42900        1.00400       -0.88079
H         26.38421       -0.08620       -0.06823
H         25.52049       -1.14461        0.83345
