27
HEXAMETHYLDISILOXANE.gamout	Energy:    -893.4717862
Si        -1.59660       -0.28311       -0.14202
Si         1.68115       -0.08421       -0.02133
O          0.05878       -0.24477       -0.42429
C         -2.16230        1.39170        0.53491
C         -2.42824       -0.65205       -1.79903
C         -1.99380       -1.65442        1.10145
C          2.67264       -0.30890       -1.61417
C          1.99331        1.63956        0.69563
C          2.15847       -1.41456        1.23818
H         -3.25933        1.40372        0.71065
H         -1.66485        1.62010        1.50101
H         -1.92176        2.21231       -0.17319
H         -2.07616       -1.62540       -2.20018
H         -3.53305       -0.70254       -1.69720
H         -2.18862        0.13091       -2.54864
H         -3.08758       -1.72078        1.28584
H         -1.65372       -2.64320        0.72760
H         -1.50010       -1.47159        2.07923
H          2.48607       -1.30758       -2.06244
H          2.38807        0.45639       -2.36652
H          3.76433       -0.21740       -1.43019
H          3.06969        1.77739        0.93529
H          1.70525        2.43064       -0.02821
H          1.41899        1.80717        1.63133
H          1.58320       -1.30693        2.18187
H          1.96663       -2.43138        0.83591
H          3.23777       -1.34925        1.49419
