8
HEXACHLOROETHANE.gamout	Energy:   -2836.7117617
Cl         0.35305        1.75233        0.51775
C          1.04670        0.17292        0.02891
Cl         2.79210        0.37231       -0.32928
Cl         0.84130       -1.00814        1.36198
C          0.29425       -0.35834       -1.27240
Cl         0.50042        0.82230       -2.60574
Cl         0.98737       -1.93814       -1.76075
Cl        -1.45126       -0.55694       -0.91446
