48
HEXAETHYLBENZENE.gamout	Energy:    -703.4620763
C          6.18811        6.24168        4.97424
C          5.19341        5.13404        5.37739
C          4.76970        4.24030        4.21491
C          5.53933        3.09123        3.89384
C          3.64928        4.59605        3.41452
C          6.73820        2.71424        4.75883
C          5.16574        2.27006        2.79784
C          2.82410        5.82083        3.80176
C          3.30044        3.79954        2.28386
C          6.37930        1.79006        5.93907
C          6.01599        1.05456        2.44041
C          4.04317        2.61592        1.99722
C          1.76142        5.55310        4.88946
C          2.17990        4.24424        1.34863
C          7.17079        1.37939        1.47149
C          3.64519        1.69382        0.84797
C          0.76725        3.72844        1.68306
C          2.78419        0.48307        1.26912
H          6.46556        6.86512        5.84928
H          5.75724        6.91098        4.20062
H          7.12056        5.81690        4.54737
H          4.30295        5.60266        5.83927
H          5.63877        4.51936        6.18506
H          7.22443        3.63062        5.14751
H          7.51446        2.22669        4.13632
H          2.31464        6.23592        2.91055
H          3.49534        6.63250        4.14910
H          5.63701        2.26489        6.61436
H          7.27763        1.53961        6.54026
H          5.92848        0.83932        5.58518
H          5.38303        0.26048        1.99910
H          6.43280        0.60488        3.36327
H          1.19891        6.47928        5.12903
H          2.21835        5.18113        5.83026
H          1.03020        4.78714        4.56088
H          2.15527        5.35261        1.31487
H          2.43041        3.93806        0.31254
H          6.79246        1.79393        0.51379
H          7.76636        0.47238        1.23972
H          7.85682        2.13945        1.90026
H          4.55506        1.32879        0.32863
H          3.08909        2.26203        0.07782
H          0.72354        2.62044        1.66865
H          0.02659        4.10654        0.94866
H          0.44151        4.05595        2.69091
H          2.52492       -0.14081        0.38885
H          1.83748        0.80805        1.74679
H          3.30952       -0.16646        2.00006
