32
HEXYL_NICOTINATE.gamout	Energy:    -672.2376470
O         -0.14318        0.53259        0.02465
O          0.81487        2.59376       -0.00808
N          3.48719       -1.42492        0.23749
C         -3.93374        0.61136       -0.09356
C         -5.01473       -0.47981       -0.10159
C         -2.50208        0.05521       -0.04188
C         -6.45072        0.06583       -0.14756
C         -1.44868        1.15467       -0.03342
C         -7.52221       -1.03138       -0.15493
C          0.91805        1.37757        0.03602
C          2.22300        0.64540        0.11112
C          3.41624        1.39583        0.12869
C          2.32001       -0.76404        0.16782
C          4.63738        0.71433        0.20067
C          4.61608       -0.69310        0.25273
H         -4.09973        1.28711        0.77718
H         -4.05226        1.25380       -0.99649
H         -4.84931       -1.15558       -0.97265
H         -4.89417       -1.12353        0.80045
H         -2.32178       -0.61327       -0.91294
H         -2.37383       -0.57587        0.86544
H         -6.61129        0.74123        0.72377
H         -6.56739        0.71070       -1.04842
H         -1.50433        1.79298       -0.94222
H         -1.56221        1.83284        0.84061
H         -8.54643       -0.60567       -0.18713
H         -7.40945       -1.69974       -1.03531
H         -7.45280       -1.66889        0.75244
H          3.35553        2.49467        0.08523
H          1.40114       -1.37524        0.15627
H          5.59470        1.25832        0.21678
H          5.56424       -1.25961        0.31025
