22
HEXYLENE_GLYCOL.gamout	Energy:    -387.2194552
C          3.48024        0.26225        2.01490
C          4.06886        1.62237        1.54568
C          2.36113       -0.32849        1.14556
C          5.05588        2.14506        2.60806
C          4.75545        1.53649        0.17583
O          3.00209        2.57985        1.37672
C          1.52622       -1.37051        1.90251
O          2.97659       -0.92037       -0.00727
H          4.29100       -0.49472        2.10610
H          3.07742        0.40977        3.04312
H          1.70105        0.52188        0.84290
H          5.46328        3.13021        2.30156
H          4.55067        2.27416        3.59110
H          5.90551        1.44692        2.76141
H          5.12838        2.53973       -0.11565
H          5.60996        0.83119        0.20734
H          4.04846        1.17228       -0.59206
H          2.61529        2.73138        2.26109
H          0.73221       -1.79195        1.24855
H          1.02449       -0.92923        2.78959
H          2.16729       -2.21137        2.24171
H          2.26204       -1.15998       -0.62639
