39
HMPIP+1.gamout	Energy:    -527.0588197
C          2.40422        3.37599       -0.34152
C          3.88356        3.64380       -0.08366
C          4.66303        3.81407       -1.41047
H          4.31063        2.82538        0.53538
H          3.95572        4.55273        0.54780
C          4.01430        2.97179       -2.53639
H          5.72058        3.51460       -1.26145
H          4.68449        4.88117       -1.71192
C          3.36346        1.70724       -1.98192
H          3.26214        3.56559       -3.09973
H          4.76415        2.66026       -3.29259
N          2.16754        2.02817       -1.06199
H          4.08657        1.13256       -1.37086
H          2.98276        1.03659       -2.77542
H          1.97484        4.16035       -0.99491
H          1.80070        3.34173        0.58621
C          0.91032        2.14656       -1.88040
H          0.08581        2.49025       -1.22726
H          0.65711        1.16371       -2.31683
H          1.07563        2.88290       -2.68850
C          2.00027        0.93565        0.00293
C          1.90536       -0.50587       -0.49144
H          1.08830        1.21546        0.56873
H          2.86537        1.05246        0.68736
C          1.69312       -1.45898        0.70637
H          2.83205       -0.80269       -1.02717
H          1.06410       -0.62573       -1.20555
C          1.64452       -2.94973        0.32418
H          2.51285       -1.29799        1.44139
H          0.75046       -1.18056        1.22961
C          0.45703       -3.36565       -0.56316
H          2.60042       -3.23640       -0.17234
H          1.61027       -3.54086        1.26649
C          0.40908       -4.87644       -0.82577
H          0.50268       -2.82948       -1.53975
H         -0.49294       -3.03860       -0.07942
H          1.33413       -5.22990       -1.32943
H         -0.45017       -5.15114       -1.47110
H          0.31106       -5.44610        0.12229
