33
HMPY+1.gamout	Energy:    -523.4683105
C         -3.15340        2.04093       -0.02059
C         -2.03585        1.03122       -0.01464
H         -2.83393        2.99092       -0.49097
H         -3.46511        2.27410        1.02125
H         -4.04799        1.66619       -0.55660
C         -0.67141        1.40949        0.01989
C          0.33179        0.43231        0.04867
H         -0.40164        2.47750        0.02453
C         -2.31201       -0.34275       -0.02352
C         -0.01911       -0.92070        0.04438
H          1.39676        0.70603        0.07285
N         -1.32643       -1.28632        0.00734
H         -3.34137       -0.73212       -0.05806
H          0.72436       -1.72740        0.06681
C         -1.75551       -2.73141       -0.00232
C         -0.64613       -3.77735        0.01789
H         -2.38309       -2.85433       -0.90989
H         -2.42093       -2.85616        0.87713
C         -1.25345       -5.19566       -0.00786
H         -0.02021       -3.66618        0.93148
H          0.02463       -3.65140       -0.86094
C         -0.20228       -6.31690        0.01082
H         -1.89090       -5.30403       -0.91464
H         -1.93806       -5.31809        0.86153
C         -0.82482       -7.72280       -0.03472
H          0.42902       -6.21855        0.92382
H          0.49018       -6.18882       -0.85256
C          0.21079       -8.85386       -0.00972
H         -1.45424       -7.81037       -0.94932
H         -1.52471       -7.83871        0.82355
H          0.90832       -8.78573       -0.87102
H         -0.27927       -9.84752       -0.05546
H          0.82090       -8.82613        0.91800
