6
HSO4-1.gamout	Energy:    -699.3882304
S          1.34270        0.08806        1.25012
O         -0.00304       -0.36294        1.71291
O          1.83674       -0.56570       -0.01461
O          1.07658        1.71988        0.68405
O          2.36113        0.24497        2.32925
H          1.28320        1.57063       -0.26041
