76
HYDROCORTISONE_21-HEMIPIMELATE.gamout	Energy:   -1691.6442996
O          1.10340       -3.53820       -0.57261
O         -0.51367        1.22791        0.79985
O          3.15014       -3.11642        2.25512
O          4.46502       -1.40762        0.59089
O         -6.82699        1.62303       -2.07906
O          5.88404       -1.72356       -1.15690
O          1.68706        2.35116       -0.91681
O          2.73048        3.52827       -2.53674
C          0.30617       -1.83579        0.99001
C         -1.10164       -2.48954        1.05866
C         -2.24691       -1.48697        1.27035
C         -2.21819       -0.41521        0.14174
C          1.19108       -3.14460        0.80748
C          0.31061       -0.86971       -0.20860
C         -3.39185        0.64347        0.24355
C         -0.81550        0.19600       -0.14306
C         -0.92839       -3.66523        2.03889
C          0.51658       -4.17124        1.76091
C         -3.60590       -2.21361        1.25172
C          0.70976       -1.12289        2.29921
C         -4.71418       -0.13590        0.28078
C         -4.80351       -1.24989        1.29671
C         -3.34417        1.55796       -1.01130
C         -3.32916        1.51185        1.53435
C          2.67392       -2.89497        1.15365
C         -4.64795        2.31901       -1.28160
C         -5.78273        0.18581       -0.50428
C         -5.84669        1.37862       -1.37687
C          3.53459       -2.33344        0.01526
C          5.60849       -1.16256       -0.11372
C          6.46672       -0.12408        0.59733
C          5.68066        1.04984        1.20902
C          4.95446        1.91629        0.16687
C          4.00795        2.95210        0.79438
C          3.37780        3.92759       -0.21996
C          2.60634        3.28300       -1.35534
H         -1.25847       -2.93921        0.04987
H         -2.11754       -0.99031        2.25894
H         -2.43980       -0.98748       -0.79221
H          1.27803       -0.32603       -0.29421
H          0.19027       -1.46414       -1.13838
H         -0.88062        0.64546       -1.16591
H         -1.68656       -4.45875        1.88465
H         -1.03267       -3.32336        3.09094
H          0.52000       -5.17475        1.28276
H          1.12266       -4.25990        2.68408
H         -3.66453       -2.82410        0.32121
H         -3.67531       -2.92708        2.10001
H          0.00921       -0.30193        2.53689
H          1.71448       -0.66306        2.19643
H          0.76721       -1.81699        3.16107
H         -5.76008       -1.79993        1.17758
H         -4.84109       -0.78290        2.30885
H         -2.50009        2.27037       -0.90421
H         -3.12217        0.92616       -1.90158
H         -3.30085        0.89246        2.45268
H         -2.42066        2.13943        1.53004
H         -4.22761        2.15916        1.60700
H          1.30436       -4.49247       -0.61402
H         -4.86314        3.03829       -0.45814
H         -4.59614        2.91868       -2.21301
H          0.31669        1.65465        0.49804
H         -6.70860       -0.41443       -0.46434
H          2.92025       -1.82971       -0.75794
H          4.08162       -3.15555       -0.49958
H          7.01455       -0.66030        1.40407
H          7.22650        0.21365       -0.13607
H          4.94332        0.64090        1.93109
H          6.38214        1.68237        1.79636
H          5.70289        2.42856       -0.47970
H          4.36682        1.25604       -0.51086
H          4.56179        3.55603        1.54674
H          3.20362        2.42712        1.35415
H          4.14783        4.56493       -0.69831
H          2.67323        4.60873        0.30806
H          1.26336        2.01378       -1.73929
