40
HYDROMORPHONE.gamout	Energy:    -938.9806475
O         -1.91782       -0.44868        1.31324
O         -2.62906       -2.36877       -0.47546
O         -3.67520        1.83634        0.58358
N          3.13710        0.16838        0.48490
C          0.38617       -0.69258        0.66536
C          1.37391       -1.30035       -0.35768
C          2.36585       -0.15536       -0.73108
C         -0.92880       -1.47068        0.99743
C          1.18626       -0.30766        1.93958
C         -0.25537        0.53109        0.04972
C          0.65797       -1.97262       -1.53816
C          1.67171        1.06519       -1.43183
C          2.32954        0.65842        1.60264
C          0.31236        1.42591       -0.85731
C         -0.36001       -3.01211       -1.01284
C         -1.44358       -2.31480       -0.20172
C         -1.55979        0.63290        0.52741
C          4.32627        0.96740        0.25201
C         -0.50646        2.51957       -1.23336
C         -2.38599        1.70688        0.15735
C         -1.81310        2.65941       -0.72174
H          1.99142       -2.07436        0.15178
H          3.10160       -0.56769       -1.45717
H         -0.83529       -2.13279        1.88598
H          1.60026       -1.23815        2.38853
H          0.50969        0.15629        2.68775
H          1.39957       -2.47313       -2.19739
H          0.12666       -1.22364       -2.16445
H          1.55027        0.82976       -2.51456
H          2.36470        1.93546       -1.40971
H          1.90851        1.68153        1.40756
H          2.99555        0.76783        2.48695
H          0.17265       -3.74293       -0.36071
H         -0.85307       -3.57614       -1.82921
H          4.95045        0.98651        1.17112
H          4.12622        2.03750       -0.02838
H          4.93557        0.51706       -0.56016
H         -0.13277        3.26879       -1.95039
H         -2.44483        3.50563       -1.03380
H         -3.90659        1.01598        1.06457
