26
HYDRAZOBENZENE.gamout	Energy:    -573.5648186
N          7.00274        4.10549        0.82439
N          7.35048        2.77883        0.69452
C          6.50355        1.86037        0.05524
C          7.49834        5.07243       -0.06543
C          6.68691        0.47296        0.27987
C          5.48611        2.28236       -0.83386
C          6.94310        6.37577       -0.04845
C          8.57135        4.79398       -0.94325
C          5.87731       -0.46396       -0.37659
C          4.68080        1.33072       -1.48098
C          7.45837        7.37428       -0.88788
C          9.07472        5.80391       -1.77783
C          4.86668       -0.04516       -1.26254
C          8.52920        7.10007       -1.75847
H          6.07203        4.29226        1.22006
H          7.89575        2.40867        1.47977
H          7.47214        0.13432        0.97672
H          5.33999        3.35507       -1.02874
H          6.10356        6.60272        0.63026
H          8.99249        3.77826       -0.96196
H          6.03606       -1.53796       -0.18762
H          3.89774        1.67793       -2.17424
H          7.01297        8.38194       -0.85976
H          9.90984        5.56822       -2.45739
H          4.23041       -0.78416       -1.77311
H          8.93060        7.88630       -2.41621
