54
HYDROXYPROGESTERONE.gamout	Energy:   -1043.1969158
O         -3.05760       -0.01655       -1.01224
O         -4.04691       -1.30533        1.81345
O          6.51307       -0.37331       -1.67791
C         -1.60768        0.10657        0.93569
C         -0.81899        1.23620        0.20709
C          0.67525        1.28032        0.55900
C          1.31409       -0.10083        0.22592
C         -3.03980        0.39503        0.37514
C          2.86661       -0.16829        0.52562
C         -0.99249       -1.24809        0.53919
C          0.52172       -1.28300        0.83918
C         -1.69054        2.49547        0.41814
C         -3.14968        1.94729        0.48395
C          1.40801        2.40025       -0.19830
C         -1.59516        0.28102        2.47435
C          3.54937        1.03599       -0.13931
C          2.91825        2.38913        0.09018
C          3.43506       -1.48737       -0.07013
C          3.15808       -0.10920        2.05226
C         -4.21746       -0.38936        1.02252
C          4.96251       -1.51066       -0.20495
C          4.69359        0.92269       -0.87410
C          5.48136       -0.32123       -1.00965
C         -5.61852       -0.02316        0.53729
H         -0.87851        0.97961       -0.87499
H          0.77939        1.47684        1.65221
H          1.22434       -0.20162       -0.88370
H         -1.16574       -1.40968       -0.54557
H         -1.50339       -2.07533        1.07517
H          0.67991       -1.31058        1.93908
H          0.93011       -2.23999        0.45374
H         -1.56028        3.23957       -0.39310
H         -1.42370        3.00883        1.36635
H         -3.64919        2.23699        1.43235
H         -3.79457        2.34346       -0.33131
H          0.98650        3.39423        0.06433
H          1.23952        2.26449       -1.29159
H         -2.17232       -0.53290        2.95070
H         -0.56306        0.25136        2.87504
H         -2.03510        1.24492        2.80371
H          3.07079        2.66561        1.16024
H          3.44944        3.15915       -0.50683
H          2.98914       -1.62872       -1.08040
H          3.10021       -2.34954        0.54293
H          2.73191       -0.99093        2.57227
H          4.24998       -0.09867        2.24637
H          2.73130        0.79790        2.52452
H         -3.65154        0.59129       -1.49133
H          5.32433       -2.44284       -0.68466
H          5.44965       -1.46607        0.79611
H          5.13602        1.80964       -1.36030
H         -5.84215        1.04886        0.72116
H         -5.69823       -0.19604       -0.55582
H         -6.36153       -0.65455        1.05882
