6
HYDRAZINE.gamout	Energy:    -111.7770793
N          1.86010        0.90098       -0.02422
N          0.47862        0.87467        0.53210
H          2.25567        1.77505        0.36431
H          2.35737        0.19177        0.54248
H         -0.01795        1.58601       -0.03252
H          0.08209        0.00212        0.14110
