33
IBUPROFEN.gamout	Energy:    -656.2182661
C          0.06843       -1.59992       -0.11140
C         -1.32449       -1.41818        0.02105
C         -1.92595       -0.41061       -0.76226
C         -1.16595        0.38778       -1.62986
C          0.22482        0.20253       -1.75659
C          0.83083       -0.80755       -0.98376
H          0.56930       -2.38051        0.48415
C         -2.16068       -2.27282        0.95544
H         -3.01364       -0.24432       -0.69411
H         -1.66429        1.17144       -2.22259
C          1.03123        1.07409       -2.71793
H          1.91798       -0.96566       -1.05304
H         -1.52511       -3.07571        1.39093
H         -2.94323       -2.79156        0.35688
C         -2.86648       -1.51404        2.10954
H         -3.41316       -0.65579        1.65311
C         -1.86517       -0.94637        3.12429
C         -3.90176       -2.41354        2.80237
H         -1.13449       -0.26267        2.64552
H         -1.29091       -1.76217        3.61676
H         -2.38485       -0.37643        3.92165
C          2.07641        1.87765       -1.94660
H          0.34312        1.84209       -3.12296
C          1.64241        0.26802       -3.88122
O          1.94320        3.02592       -1.56941
H         -3.41339       -3.29303        3.27643
H         -4.65698       -2.79693        2.08528
H         -4.44085       -1.86117        3.59941
H          2.32343       -0.52113       -3.50728
H          2.21866        0.92712       -4.56169
H          0.83746       -0.21789       -4.46685
O          3.20870        1.15665       -1.69858
H          3.78666        1.75715       -1.17666
