9
IMIDAZOLE.gamout	Energy:    -226.0599444
N          0.74596       -0.90429       -0.00000
N         -1.15642        0.26658       -0.00012
C          1.11545        0.42979       -0.00000
C         -0.62887       -0.94806       -0.00008
C         -0.08200        1.13212       -0.00008
H          1.38140       -1.70415        0.00007
H          2.16448        0.74576        0.00008
H         -1.18354       -1.89662       -0.00009
H         -0.21943        2.22167       -0.00010
