17
INDENE.gamout	Energy:    -347.5081919
C          2.69163        1.59645        2.04469
C          2.10694        2.84624        2.40318
C          1.86260        0.97373        0.94236
C          3.84727        1.14041        2.68833
C          0.91927        3.05102        1.56315
C          2.68693        3.63935        3.41179
C          0.76472        1.99053        0.72154
C          4.42532        1.93844        3.69785
C          3.84965        3.17423        4.05355
H          2.45853        0.79656        0.01650
H          1.45496       -0.02288        1.23261
H          4.30492        0.17488        2.41632
H          0.26308        3.93264        1.61565
H          2.24096        4.60677        3.69393
H         -0.03589        1.86682       -0.02217
H          5.33567        1.59236        4.21294
H          4.31671        3.78257        4.84475
