26
INDIGOIDINE.gamout	Energy:    -905.2282225
O         -3.61650        0.40653        0.12382
O          0.23619       -1.97851       -2.58347
O         -3.45863        3.18750       -3.47833
O          0.07174       -4.76087        1.01712
N         -3.46320        1.72619       -1.69995
N          0.07929       -3.29889       -0.76071
N         -1.46836        1.81269       -4.70388
N         -1.91929       -3.38546        2.24076
C         -1.94277       -0.20620       -1.56788
C         -1.44021       -1.36583       -0.89407
C         -1.44037        0.23600       -2.83452
C         -1.94401       -1.80798        0.37202
C         -3.04492        0.60849       -0.95177
C         -0.33742       -2.18068       -1.50899
C         -1.91333        1.35544       -3.50390
C         -1.47249       -2.92791        1.04156
C         -3.00253        2.18413       -2.92510
C         -0.38309       -3.75701        0.46373
H         -0.63477       -0.36010       -3.28387
H         -2.74991       -1.21165        0.82057
H         -4.21668        2.27030       -1.26353
H          0.83319       -3.84310       -1.19628
H         -1.91608        2.65538       -5.07325
H         -0.72429        1.34634       -5.21805
H         -1.47273       -4.22875        2.61020
H         -2.66393       -2.91907        2.75405
