16
INDOLE.gamout	Energy:    -363.5618390
C          0.74982        1.63035        0.48906
C          1.77211        0.62146        0.43218
C         -0.45281        0.98088        0.94982
C          1.08171        2.95578        0.11650
N          1.19434       -0.56814        0.84168
C          3.08847        0.90649        0.01927
C         -0.14067       -0.35316        1.15202
C          2.38881        3.24140       -0.29390
C          3.38189        2.22779       -0.34211
H         -1.43272        1.44464        1.11248
H          0.31864        3.74988        0.15039
H          1.67584       -1.46395        0.90489
H          3.86052        0.12140       -0.01886
H         -0.77109       -1.18143        1.49802
H          2.65617        4.26944       -0.58552
H          4.40178        2.48431       -0.66976
