8
IODOETHANE.gamout	Energy:    -376.9964308
C          0.18816        0.09667        0.02581
C          1.70322        0.19035        0.02577
I          2.42156        2.27182        0.02580
H         -0.11070       -0.97591        0.02533
H         -0.25663        0.57027       -0.87262
H         -0.25651        0.56948        0.92471
H          2.16639       -0.25376       -0.87529
H          2.16643       -0.25376        0.92682
