24
ISO-BUTYLBENZENE.gamout	Energy:    -389.2111084
C         -4.24320        1.58197       -2.80569
C         -5.38766        1.04706       -3.44036
C         -4.40880        2.72650       -1.99535
C         -6.65349        1.63179       -3.26824
C         -5.67326        3.31677       -1.82019
C         -6.80161        2.76953       -2.45456
H         -5.28320        0.16226       -4.09103
H         -3.52887        3.16686       -1.49742
H         -7.53057        1.19926       -3.77637
H         -5.77685        4.21067       -1.18411
H         -7.79317        3.23030       -2.31917
C         -2.88805        0.92223       -2.97555
H         -2.08605        1.63847       -2.68716
H         -2.72772        0.69126       -4.05220
C         -2.69332       -0.38817       -2.16172
H         -3.51556       -1.08221       -2.45552
C         -2.79667       -0.14861       -0.64711
C         -1.35590       -1.05263       -2.52990
H         -0.49930       -0.39291       -2.26919
H         -1.29107       -1.27022       -3.61695
H         -1.21627       -2.00875       -1.98318
H         -3.76635        0.31182       -0.36744
H         -1.98882        0.53180       -0.29722
H         -2.69591       -1.09987       -0.08354
