23
ISO-PROPYL_ISO-BUTYRATE.gamout	Energy:    -425.3307233
O         34.20429       29.71335        0.38335
C         35.30547       29.27926       -0.29006
C         36.52476       30.14934        0.02307
O         35.30597       28.32268       -1.04545
C         32.96479       28.95988        0.19970
C         36.30983       31.60042       -0.45060
C         36.88765       30.08091        1.51992
C         32.92985       27.79773        1.19267
C         31.82140       29.95384        0.37621
H         37.34353       29.69147       -0.57074
H         32.98059       28.55542       -0.83499
H         37.22942       32.19994       -0.28569
H         36.06618       31.64312       -1.53232
H         35.47983       32.07933        0.10812
H         37.81333       30.66043        1.71854
H         37.06428       29.03592        1.84854
H         36.07336       30.50471        2.14235
H         31.99068       27.21787        1.07558
H         33.77872       27.10802        1.01516
H         32.98030       28.17004        2.23727
H         30.84776       29.44579        0.21952
H         31.89902       30.78472       -0.35376
H         31.82512       30.38640        1.39850
