15
ISO-VALERONITRILE.gamout	Energy:    -250.5009473
C         16.76766        0.14025        0.16134
C         18.24251        0.53360       -0.01841
C         18.40550        2.03693       -0.28858
C         19.05704        0.08253        1.22694
C         20.50203        0.30172        1.10979
N         21.65477        0.48266        0.99605
H         16.17209        0.41909       -0.73204
H         16.64762       -0.95214        0.31891
H         16.31899        0.65870        1.03647
H         18.64907       -0.02356       -0.89275
H         19.46993        2.31502       -0.43204
H         17.85143        2.33556       -1.20222
H         18.00718        2.64003        0.55645
H         18.69548        0.62258        2.13149
H         18.88947       -0.99967        1.42200
