26
ISOAMYL_PROPIONATE.gamout	Energy:    -464.6099589
O          4.12739        3.26861        1.57913
C          3.06380        2.52890        2.00382
C          2.06246        2.33042        0.87515
O          2.94552        2.09898        3.13791
C          5.16652        3.53669        2.55581
C          0.83611        1.52254        1.29760
C          6.21172        2.42216        2.60807
C          6.93792        2.10734        1.28089
C          7.82633        0.86205        1.44579
C          7.75697        3.29929        0.75660
H          1.78531        3.33865        0.49590
H          2.60383        1.84794        0.03161
H          4.69495        3.66514        3.55156
H          5.60696        4.50160        2.23411
H          0.29708        2.01885        2.12924
H          0.13058        1.40121        0.45093
H          1.12562        0.51366        1.65420
H          6.96277        2.70961        3.38080
H          5.71536        1.50325        2.98853
H          6.15423        1.87366        0.52417
H          8.32056        0.58543        0.49098
H          8.62738        1.04436        2.19568
H          7.24192       -0.01646        1.79120
H          7.12642        4.18891        0.55024
H          8.27503        3.04131       -0.19076
H          8.53838        3.60100        1.48899
