17
ISOBUTYL_FORMATE.gamout	Energy:    -346.7447385
C         -0.09913        0.89168        0.40784
C          1.07285        1.69050       -0.18695
C          0.64868        3.15229       -0.38523
C          2.34103        1.57630        0.67262
O          1.66331        3.89825       -1.08129
C          2.17311        5.01148       -0.49351
O          3.01510        5.70055       -1.01074
H          0.16692       -0.17970        0.51514
H         -0.37243        1.26723        1.41823
H         -1.00682        0.94839       -0.22936
H          1.29853        1.28281       -1.19882
H         -0.27809        3.20982       -0.99591
H          0.44066        3.63448        0.60081
H          3.18782        2.13394        0.22405
H          2.65562        0.51771        0.77875
H          2.16813        1.97695        1.69589
H          1.71457        5.20407        0.52130
