15
ISOBUTANOL.gamout	Energy:    -233.4854716
C          2.68200        2.34144        0.99284
C          1.52596        2.15120        1.98393
C          0.84288        0.79298        1.76171
C          1.99910        2.33034        3.43517
O          3.20890        3.65410        1.14009
H          3.45988        1.55897        1.19514
H          2.30584        2.16213       -0.04681
H          0.78901        2.95747        1.75997
H          0.47923        0.67894        0.71819
H         -0.03056        0.66885        2.43518
H          1.54136       -0.04766        1.96825
H          2.51225        3.30433        3.56087
H          2.71503        1.52733        3.71964
H          1.14797        2.28885        4.14650
H          3.98778        3.72852        0.56014
