20
ISOBUTYL_ACETATE.gamout	Energy:    -386.0441577
C          3.33713        1.81340        1.50215
O          3.98078        3.10363        1.39393
C          1.90344        1.94136        0.98046
C          5.26406        3.17471        1.84620
C          1.24572        0.55345        0.89881
C          1.07080        2.92146        1.82326
C          5.83838        4.55920        1.62453
O          5.85559        2.22998        2.33465
H          3.36518        1.47964        2.56389
H          3.92140        1.07082        0.91540
H          1.97819        2.35063       -0.05374
H          1.17064        0.08038        1.90220
H          0.21706        0.62947        0.49002
H          1.81730       -0.13675        0.24310
H          0.06558        3.07551        1.37887
H          0.92748        2.53558        2.85636
H          1.56874        3.90907        1.89467
H          6.70729        4.70767        2.29126
H          6.18307        4.64694        0.57258
H          5.07722        5.34482        1.79408
