21
ISOBUTYL_ACRYLATE.gamout	Energy:    -424.0965196
O          4.41835        1.77884        1.94022
C          3.26694        1.08862        2.17626
C          2.12443        1.71637        1.44951
O          3.20628        0.09750        2.88656
C          5.60383        1.27204        2.59245
C          0.88436        1.19806        1.53531
C          6.80049        2.13609        2.18789
C          7.05071        2.08801        0.67168
C          8.04200        1.70293        2.98598
H          2.34649        2.61314        0.84869
H          5.43961        1.28239        3.69226
H          5.75041        0.20787        2.29955
H          0.03096        1.64892        1.00562
H          0.70797        0.29856        2.14846
H          6.55277        3.18584        2.46878
H          6.15129        2.40451        0.10673
H          7.31251        1.05754        0.34601
H          7.89011        2.75400        0.38273
H          8.31946        0.65124        2.75569
H          8.91596        2.33870        2.73575
H          7.87624        1.77453        4.08148
