27
ISOBUTYLCYCLOPENTANE.gamout	Energy:    -353.5290184
C          4.63301        1.99847        3.62087
C          3.38074        2.67382        2.99871
C          2.98805        2.23800        1.56175
C          4.52097        0.46751        3.73550
C          5.93251        2.40224        2.89963
C          2.25544        3.35494        0.77790
C          1.92878        1.10243        1.53098
C          0.79956        3.30735        1.29844
C          0.55088        1.81406        1.67658
H          4.70326        2.39857        4.65970
H          3.56435        3.77255        3.00575
H          2.51695        2.51188        3.68316
H          3.90723        1.93284        1.01437
H          3.60917        0.15987        4.29023
H          5.39610        0.04529        4.27388
H          4.48643       -0.01569        2.73569
H          6.04540        3.50612        2.84987
H          5.96580        2.01571        1.85785
H          6.82394        1.99740        3.42410
H          2.72944        4.35227        0.89816
H          2.27741        3.11313       -0.30809
H          1.98223        0.58122        0.55039
H          2.09543        0.33267        2.31052
H          0.07382        3.68565        0.54894
H          0.69304        3.95483        2.19472
H          0.16299        1.73021        2.71349
H         -0.21170        1.34135        1.02345
