16
ISOBUTYLAMINE.gamout	Energy:    -213.6344591
C          2.02226        2.76332        1.66040
N          0.75975        2.05025        1.44761
C          3.22397        1.98242        1.08609
C          3.37341        0.60632        1.75245
C          4.51328        2.81249        1.19021
H          2.04458        3.80374        1.23856
H          2.17134        2.87691        2.75927
H         -0.01014        2.54241        1.91951
H          0.52071        2.06219        0.44556
H          3.01343        1.81770        0.00078
H          4.16856        0.00153        1.26780
H          3.64532        0.71942        2.82532
H          2.41883        0.04502        1.70575
H          4.76584        3.02604        2.25234
H          5.37786        2.27434        0.74829
H          4.42030        3.78744        0.66609
