13
ISOBUTYRALDEHYDE.gamout	Energy:    -232.2802573
C          0.90531       -0.00085       -0.37752
C         -0.44491       -0.00048        0.32962
C         -1.22083        1.27737       -0.04740
C         -1.22213       -1.27763       -0.04696
O          1.99077        0.00132        0.16740
H          0.82394       -0.00269       -1.51425
H         -0.22441       -0.00034        1.41908
H         -1.42231        1.31974       -1.13990
H         -2.20166        1.30502        0.47200
H         -0.66240        2.19409        0.23336
H         -0.66463       -2.19487        0.23399
H         -2.20292       -1.30416        0.47254
H         -1.42375       -1.32011       -1.13942
