30
ISOBUTYLCYCLOHEXANE.gamout	Energy:    -392.8173979
C          5.81621        1.88740        1.97718
C          4.48293        1.47217        2.64265
C          3.31311        2.47537        2.55471
C          6.41498        3.15190        2.61199
C          6.82701        0.72971        2.02942
C          2.06864        1.97857        3.31727
C          2.92239        2.81029        1.08880
C          0.97802        3.07190        3.42178
C          1.45011        3.26473        0.93672
C          0.96753        4.00713        2.18841
H          5.61456        2.10539        0.90197
H          4.14959        0.50734        2.19308
H          4.68401        1.25322        3.71797
H          3.63808        3.41960        3.05254
H          7.37935        3.42545        2.13442
H          5.74277        4.02951        2.51787
H          6.61402        2.99786        3.69588
H          7.77940        1.00319        1.52909
H          7.06884        0.45637        3.08060
H          6.43538       -0.18219        1.53167
H          1.66625        1.08305        2.78999
H          2.35424        1.62937        4.33234
H          3.59939        3.60216        0.70236
H          3.09661        1.91723        0.44757
H         -0.01440        2.58563        3.53863
H          1.13252        3.67704        4.34121
H          1.33736        3.90073        0.03361
H          0.79446        2.38015        0.76916
H         -0.04897        4.42355        2.03044
H          1.63252        4.88239        2.36719
