10
ISOCROTONOLACTONE.gamout	Energy:    -305.0459562
O         -0.00948        1.13152       -0.00029
O         -2.01614        0.04190        0.00020
C          1.36770        0.76033       -0.00042
C          1.38332       -0.74333       -0.00019
C          0.11015       -1.18688        0.00009
C         -0.80864       -0.01068        0.00002
H          1.86824        1.19159        0.89774
H          1.86801        1.19132       -0.89883
H          2.30642       -1.34190       -0.00021
H         -0.25823       -2.22024        0.00029
