12
ISOPROPANOL.gamout	Energy:    -194.2071722
C          0.61580        1.34169        1.84122
C          2.04847        1.88950        1.86348
C          2.95842        1.19127        0.84469
O          2.06812        3.30899        1.69468
H          0.16130        1.47482        0.83397
H          0.58528        0.25791        2.08073
H         -0.01480        1.88042        2.57658
H          2.47118        1.72994        2.88124
H          3.03599        0.10105        1.04078
H          2.56287        1.31734       -0.18825
H          3.97784        1.62521        0.87736
H          1.70346        3.49110        0.80633
