17
ISOPROPYL_ACETATE.gamout	Energy:    -346.7653538
O          3.19956        0.97890        1.78845
C          1.99084        1.74230        2.09629
C          4.39433        1.60902        1.95652
C          0.93760        0.71812        2.50872
C          1.59186        2.58434        0.88439
C          5.54220        0.66785        1.64970
O          4.51183        2.76182        2.33210
H          2.23864        2.41575        2.94492
H          1.28360        0.12462        3.37880
H          0.72133        0.01758        1.67533
H         -0.00690        1.22799        2.78824
H          1.43088        1.93955       -0.00490
H          0.64954        3.13261        1.09162
H          2.37713        3.32977        0.64959
H          5.29949       -0.00267        0.80288
H          5.73327        0.02736        2.53681
H          6.45564        1.25297        1.43800
