16
ISOPHTHALOYL_CHLORIDE.gamout	Energy:   -1377.6013865
Cl         6.52370        4.59369       -1.30846
C          7.27823        2.97851       -0.91348
O          8.47281        2.86950       -0.88295
C          6.29552        1.88314       -0.65054
C          6.83350        0.61701       -0.33928
C          4.89362        2.05433       -0.69858
C          5.97880       -0.47369       -0.07647
C          4.04479        0.96783       -0.43735
C          6.63784       -1.77646        0.24475
C          4.57842       -0.29240       -0.12717
Cl         5.47949       -3.14781        0.58104
O          7.82109       -1.96922        0.29415
H          7.92421        0.47963       -0.30123
H          4.48067        3.04385       -0.94178
H          2.95342        1.10485       -0.47580
H          3.91803       -1.14695        0.07854
