15
ISOPROPENYL_ACETATE.gamout	Energy:    -345.5328524
C          0.65069        1.10558        2.45084
C          1.95504        1.87264        2.41979
O          3.00644        1.00021        2.25389
O          2.08055        3.07433        2.53010
C          4.32068        1.49835        2.14109
C          5.22207        1.08106        3.04730
C          4.58473        2.37317        0.94982
H         -0.18510        1.80734        2.61877
H          0.50563        0.56427        1.49358
H          0.67504        0.34108        3.25366
H          4.92612        0.43150        3.88413
H          6.27675        1.37825        2.95852
H          4.01790        3.32224        1.03624
H          5.66395        2.60378        0.86667
H          4.25673        1.86788        0.01590
