13
ISOPRENE.gamout	Energy:    -195.1532282
C          1.80121        2.12523        1.26658
C          3.25672        2.11619        1.54805
C          4.02979        0.94317        0.98230
C          3.85697        3.08403        2.28328
C          1.03319        3.21773        1.06503
H          1.32616        1.12791        1.18860
H          3.94961        0.90695       -0.12634
H          3.62054       -0.02018        1.35970
H          5.10355        0.98878        1.25124
H          4.94402        3.07252        2.46568
H          3.27997        3.90643        2.73591
H          1.46060        4.23454        1.07411
H         -0.04831        3.12949        0.87441
