18
ISOPHTHALIC_ACID.gamout	Energy:    -608.9706728
O          0.96749        3.45856        0.13681
C          1.61285        4.65675        0.11291
O          1.01895        5.72303        0.11715
C          3.10236        4.51179        0.08138
C          3.73287        3.25106        0.07749
C          3.88209        5.68882        0.05512
C          5.13950        3.17050        0.04743
C          5.28263        5.60677        0.02506
C          5.86259        1.85979        0.04225
C          5.91188        4.35242        0.02121
O          5.01828        0.79237        0.06988
O          7.07656        1.73678        0.01624
H          0.01041        3.67897        0.15588
H          3.12912        2.33384        0.09798
H          3.36267        6.65937        0.05882
H          5.88805        6.52630        0.00452
H          7.00853        4.25955       -0.00196
H          5.59934        0.00039        0.06352
