20
ISOPENTYL_FORMATE.gamout	Energy:    -386.0316733
C          5.54973        2.32904       11.10902
O          5.01299        2.72561       12.12081
O          5.03036        2.37505        9.86520
H          6.56691        1.86007       11.05399
C          3.70541        2.96048        9.74958
C          3.30232        2.90242        8.28192
H          3.74011        3.99646       10.14762
H          3.00304        2.38851       10.39505
C          1.87810        3.42147        7.98145
H          3.38017        1.84543        7.94496
H          4.04392        3.47343        7.67815
C          1.68645        4.90456        8.34687
H          1.85544        5.10576        9.42498
H          0.65544        5.23933        8.10823
H          2.38668        5.54895        7.77101
C          1.53029        3.17147        6.50308
H          1.16766        2.82260        8.60003
H          1.62149        2.09695        6.23949
H          2.21235        3.73929        5.83313
H          0.49287        3.49028        6.26910
