18
ISOPROPYLCYCLOPROPANE.gamout	Energy:    -235.6575897
C          2.50095        0.92736        3.96435
C          2.04343        2.13007        3.12054
C          0.52134        2.11521        2.89451
C          2.79626        2.18883        1.79360
C          2.99827        3.50355        1.06895
C          4.18021        2.80032        1.70964
H          2.26852       -0.03013        3.44898
H          1.99261        0.90440        4.95176
H          3.59569        0.95226        4.14533
H          2.29874        3.06026        3.68174
H          0.18995        2.99745        2.30826
H         -0.03550        2.11665        3.85580
H          0.21270        1.20683        2.33253
H          2.62148        1.30747        1.14691
H          2.92840        3.52036       -0.03094
H          2.62030        4.42044        1.55306
H          4.93013        2.32945        1.05341
H          4.60231        3.24197        2.62832
