29
ISOPENTYL_BUTYRATE.gamout	Energy:    -503.8905243
C         -3.60806       -0.62776       -0.35459
C         -2.33261        0.21911       -0.42824
H         -3.38464       -1.67845       -0.06902
H         -4.13438       -0.65346       -1.33092
H         -4.32120       -0.22810        0.39820
C         -1.58104        0.28621        0.90562
H         -2.58241        1.25299       -0.75363
H         -1.64536       -0.17557       -1.20627
C         -0.26816        1.05025        0.82923
H         -1.33560       -0.73884        1.26999
H         -2.20072        0.73406        1.71224
C          1.44975        2.04393        2.18049
C          1.21878        3.55308        2.30091
C          2.46437        4.38865        2.69061
H          0.41786        3.71652        3.05573
H          0.82205        3.92399        1.33084
C          2.97737        4.07511        4.10884
H          3.75881        4.80122        4.41645
H          3.43424        3.06376        4.17356
H          2.16089        4.12191        4.86014
C          3.59469        4.28633        1.64928
H          2.11917        5.44812        2.69720
H          4.42968        4.97384        1.89959
H          3.23638        4.54572        0.63095
H          4.02070        3.26095        1.60237
O          0.18534        1.34194        2.08080
H          1.93359        1.63026        3.08808
H          2.06078        1.79766        1.28875
O          0.32166        1.34362       -0.19566
