13
ISOPROPYLAMINE.gamout	Energy:    -174.3540287
C         -1.03176       -0.18473       -0.15029
C         -0.99515       -1.69612        0.11577
H         -0.09333       -2.14966       -0.34206
H         -1.89454       -2.20521       -0.28775
H         -0.95967       -1.89940        1.20954
C         -2.29301        0.46512        0.45290
H         -3.22680        0.02692        0.03817
H         -2.31832        1.55779        0.25228
H         -2.31784        0.32552        1.55679
N          0.23645        0.40773        0.30756
H         -1.06472       -0.03417       -1.25518
H          0.22173        1.42492        0.14296
H          0.30138        0.30445        1.33287
