17
ISOVALERIC_ACID.gamout	Energy:    -346.7706013
C         34.93128       30.07526       -0.03698
C         33.65277       29.21933       -0.08095
C         34.68224       31.56378        0.13741
C         32.82802       29.49242       -1.35047
C         33.99478       27.72661        0.05660
O         35.80613       32.29108       -0.11715
O         33.63551       32.08278        0.48298
H         35.57879       29.76655        0.81573
H         35.56155       29.92895       -0.94238
H         33.03624       29.52490        0.79396
H         31.89066       28.89786       -1.35042
H         32.54514       30.56175       -1.42411
H         33.39778       29.21793       -2.26558
H         33.07542       27.10474        0.05557
H         34.54435       27.51396        0.99811
H         34.63091       27.37965       -0.78709
H         35.55447       33.22678        0.05263
