31
KAEMPFEROL.gamout	Energy:   -1028.2438012
O         -0.10313       -0.80806        0.11468
O          0.83915        2.70336       -0.41503
O         -4.15278        1.73779       -0.28902
O         -1.88103        2.85263       -0.50009
O         -4.26717       -2.98713        0.57670
O          6.22136       -0.88483        0.12795
C         -2.10304        0.51788       -0.09979
C         -1.46583       -0.72470        0.12398
C          0.67641        0.30067       -0.10239
C         -1.33843        1.72911       -0.31467
C          0.11852        1.55845       -0.28213
C          2.11378       -0.01165       -0.05093
C         -3.53838        0.57246       -0.08746
C         -2.18352       -1.90233        0.35022
C         -3.59148       -1.82806        0.35558
C         -4.26692       -0.60679        0.14084
C          2.58327       -1.06243        0.77216
C          3.07018        0.69800       -0.82322
C          3.94426       -1.37194        0.84334
C          4.43236        0.39918       -0.75074
C          4.88525       -0.63624        0.09183
H         -1.67267       -2.85828        0.51383
H         -5.36599       -0.55151        0.14676
H          1.86064       -1.64125        1.36323
H          2.73424        1.46482       -1.53736
H          4.28539       -2.19129        1.49674
H          5.16630        0.94590       -1.35897
H          1.77215        2.51074       -0.18669
H         -3.38400        2.41712       -0.41686
H         -5.22413       -2.79503        0.55176
H          6.38885       -1.62568        0.74179
