32
KETOROLAC.gamout	Energy:    -859.2441360
O         -2.93504        1.83505        0.07995
O         -4.97925        0.96288        0.51775
O          2.10541       -2.12057       -1.42519
N         -0.78450       -0.62251        0.20669
C         -2.99466       -0.36992        1.03006
C         -1.95887       -0.01964        2.15031
C         -0.60761        0.18333        1.42093
C         -2.09369       -0.96875       -0.02005
C          0.03449       -1.23783       -0.73966
C         -2.15890       -1.80474       -1.14222
C         -0.82267       -1.98400       -1.57885
C         -3.76956        0.85235        0.52534
C          1.50785       -1.21873       -0.82632
C          2.29909       -0.08895       -0.21084
C          1.87233        1.25591       -0.27561
C          3.56969       -0.38382        0.33386
C          2.69316        2.28537        0.21731
C          4.37527        0.64037        0.85140
C          3.93808        1.97811        0.79403
H         -3.76760       -1.07949        1.38332
H         -1.88682       -0.88616        2.83907
H         -2.24950        0.86502        2.74986
H         -0.44251        1.24778        1.15744
H          0.26458       -0.16179        2.01064
H         -3.06630       -2.23747       -1.57929
H         -0.46222       -2.59034       -2.41805
H         -3.52045        2.56443       -0.22409
H          0.90944        1.49924       -0.75295
H          3.90606       -1.43236        0.33227
H          2.36419        3.33424        0.14164
H          5.35518        0.39975        1.29374
H          4.57735        2.78520        1.18619
