13
L-ALANINE.gamout	Energy:    -323.5104540
C          3.09935        2.84459        1.80737
C          1.96758        2.10484        1.09477
C          2.10952        0.58920        1.38813
N          0.70676        2.71520        1.50391
O          4.27444        2.75482        1.13311
O          2.99287        3.40567        2.88287
H          2.11731        2.25647        0.00118
H          2.02485        0.39504        2.47826
H          1.30113        0.02937        0.87266
H          3.08140        0.18995        1.03060
H         -0.07384        2.07368        1.31577
H          0.73648        2.86942        2.52284
H          4.94058        3.20742        1.69792
