37
L-ALANYL-L-TRYPTOPHAN.gamout	Energy:    -933.0338808
O          1.35559        2.54045        1.76972
O          0.48687        3.78857        0.09437
O          3.51765       -0.05141       -0.85179
N          1.56654        0.32256        0.29070
N         -3.30941        1.13799        0.08790
N          2.48384       -2.76912       -0.45379
C          0.08138        1.35674       -1.44331
C          1.24385        1.54027       -0.42615
C         -1.23150        0.96407       -0.81833
C         -1.67069       -0.35761       -0.40293
C         -2.98619       -0.20520        0.15867
C         -2.26402        1.83625       -0.49330
C         -1.10318       -1.65787       -0.45548
C          0.97614        2.74252        0.48293
C          2.66724       -0.42471       -0.03988
C          2.76725       -1.81078        0.62798
C         -3.72540       -1.29338        0.66145
C         -1.83921       -2.73888        0.04776
C         -3.13436       -2.56163        0.59976
C          4.13643       -1.97363        1.31098
H          0.40806        0.59270       -2.17972
H         -0.03127        2.31478       -1.98904
H          2.16929        1.78397       -0.99887
H         -2.32311        2.92245       -0.63426
H          0.85570       -0.08530        0.90297
H         -4.18892        1.54935        0.39716
H         -0.09374       -1.83308       -0.86480
H          1.95993       -1.91439        1.38782
H         -4.73164       -1.15324        1.08781
H         -1.40241       -3.74945        0.01124
H         -3.68384       -3.43324        0.98960
H          4.25229       -1.27831        2.16974
H          4.94419       -1.75500        0.58238
H          4.26370       -3.01005        1.68861
H          2.61280       -3.73162       -0.11242
H          3.18479       -2.62508       -1.19664
H          1.15571        3.38552        2.23241
