23
L-PHENYLALANINE.gamout	Energy:    -554.3927608
C          6.35424        1.80292       -0.62328
C          7.40063        2.89852       -0.67941
C          6.68610        0.53382       -0.09946
C          5.03115        2.01826       -1.07088
C          7.19800        4.02881        0.36697
C          8.53088        4.78602        0.55394
N          6.03040        4.84592        0.05990
O          8.35973        6.13798        0.58878
O          9.62357        4.26363        0.67614
C          4.07208        0.99431       -0.99659
C          4.41619       -0.26496       -0.47277
C          5.72826       -0.49262       -0.02373
H          8.40679        2.46729       -0.50767
H          7.42054        3.36859       -1.68920
H          7.71587        0.34672        0.24917
H          4.75345        3.00773       -1.46390
H          7.02540        3.53188        1.35034
H          5.84930        5.50925        0.82383
H          6.22516        5.42632       -0.76810
H          9.25974        6.50870        0.73225
H          3.04549        1.18113       -1.35163
H          3.66328       -1.06766       -0.41746
H          6.01102       -1.47609        0.38533
