24
L-TYROSINE.gamout	Energy:    -629.5644212
C          6.19540        1.82625       -0.06138
C          7.04907        0.76969       -0.44397
C          6.44863       -0.40353       -0.95681
C          5.05802       -0.52432       -1.08278
C          4.22023        0.54155       -0.69286
C          4.80088        1.72141       -0.18105
O          2.87141        0.38117       -0.83681
C          8.55163        0.88285       -0.28872
C          9.09836        0.46978        1.10313
N         10.54537        0.70122        1.14229
C          8.75266       -1.00181        1.37125
O          9.23535       -1.93823        0.75352
O          7.87147       -1.16732        2.38972
H          6.62924        2.76014        0.33363
H          7.09003       -1.24400       -1.26899
H          4.59735       -1.43768       -1.48890
H          4.15498        2.56489        0.11904
H          2.42849        1.19576       -0.53120
H          9.05938        0.24566       -1.04526
H          8.89337        1.92486       -0.45997
H          8.61334        1.09158        1.88444
H         10.90374        0.52084        2.09052
H         11.00044        0.00008        0.53699
H          7.72013       -2.13823        2.45834
