11
LAC-1.gamout	Energy:    -342.8128756
C         -0.99687        1.67133        0.31016
C          0.02412        2.58399       -0.49417
C          0.15572        3.96510        0.16079
H          0.80047        4.65391       -0.43180
H          0.61348        3.85499        1.16902
H         -0.85423        4.41157        0.27710
O          1.25532        1.89359       -0.57056
H         -0.42000        2.73415       -1.51826
H          0.93987        1.05845       -0.07464
O         -0.47196        0.55460        0.64574
O         -2.14863        2.11042        0.52653
