12
LACTIC_ACID.gamout	Energy:    -343.3662313
C         -0.03370        0.55104       -0.26958
C          1.42975        0.08837       -0.19112
C          1.85551       -0.25068        1.23962
O          2.30329        1.06536       -0.70507
O          1.07491       -1.17250        1.84105
O          2.82565        0.26552        1.77410
H         -0.27500        0.80510       -1.32064
H         -0.72531       -0.24202        0.07746
H         -0.18336        1.46230        0.34503
H          1.52443       -0.86897       -0.76877
H          2.97095        1.20364        0.00539
H          1.45342       -1.30987        2.73858
