45
LACTOSE.gamout	Energy:   -1296.9872965
O          1.44873       -0.63494        0.61680
O          0.47980        0.39974       -1.99813
O          0.14663       -1.43492       -4.03326
O          1.75853       -3.43978       -3.13976
O          1.20929       -2.74591       -0.23474
O          0.44624       -6.03155       -1.47904
C          0.75554       -1.40751       -0.32786
C          0.88939       -0.93663       -1.78802
C          0.02210       -1.83018       -2.67285
C          0.47961       -3.28761       -2.54546
C          0.51469       -3.68368       -1.05962
C          1.20422       -5.02458       -0.82327
O          6.59804        0.69255        1.90648
O          5.04238        2.45804        0.30538
O          2.87664        1.33590       -1.00192
O          4.88418       -0.84308        1.90726
O          4.06690       -3.32539        1.04826
C          5.21498        0.53382        1.82039
C          4.77676        1.07214        0.45902
C          3.27431        0.89005        0.29631
C          2.87271       -0.56881        0.51186
C          3.46984       -1.09879        1.83864
C          3.33675       -2.60962        2.02506
H          1.21774        0.95301       -1.64085
H          0.20155       -0.45476       -3.99175
H          1.70269       -2.88699       -3.94961
H          1.03999       -6.78452       -1.64430
H         -0.31580       -1.32228       -0.01369
H          1.94704       -1.10092       -2.10439
H         -1.03882       -1.74547       -2.32619
H         -0.27014       -3.95511       -3.03340
H         -0.55057       -3.75520       -0.72237
H          2.24242       -4.93705       -1.21283
H          1.26620       -5.18987        0.27892
H          6.87011        0.48057        2.81955
H          6.00638        2.56632        0.41984
H          3.32033        2.20103       -1.12976
H          4.97115       -2.95202        1.07316
H          4.67695        1.09408        2.63367
H          5.30855        0.46024       -0.31094
H          2.76902        1.50386        1.08333
H          3.25290       -1.20283       -0.31743
H          2.95069       -0.57128        2.67844
H          3.67510       -2.84823        3.06256
H          2.27333       -2.89881        1.93061
