10
LACTONITRILE.gamout	Energy:    -247.0888012
C         33.97107       29.87767        0.01333
C         32.60006       29.29882        0.05676
C         31.81874       29.64620       -1.22155
O         32.64247       27.90607        0.32697
N         35.06836       30.28342       -0.05866
H         32.08664       29.75014        0.93435
H         30.80186       29.21187       -1.15316
H         31.73537       30.74371       -1.35747
H         32.32611       29.22883       -2.11650
H         33.10423       27.47541       -0.41979
