33
LEVOSIMENDAN.gamout	Energy:    -943.7015081
O         -6.81220       -0.81701       -0.33712
N         -3.28701       -1.26704       -0.04491
N         -4.63677       -1.44376       -0.02117
N          2.88098        0.50258       -0.01218
N          3.70632       -0.51008       -0.04275
N          6.65515       -2.32146       -0.08421
N          5.82888        2.18691        0.05374
C         -3.74947        1.15789        0.10244
C         -5.05744        0.86241       -0.65721
C         -2.81900       -0.04538       -0.02009
C         -3.99774        1.48388        1.59444
C         -1.34641        0.10567       -0.02734
C         -5.62896       -0.50436       -0.31556
C         -0.71849        1.37529        0.01097
C         -0.50682       -1.04331       -0.06415
C          0.67652        1.49768        0.01597
C          0.88213       -0.93806       -0.06027
C          1.48344        0.34243       -0.01965
C          5.01852       -0.29199       -0.03043
C          5.90517       -1.41654       -0.06054
C          5.55096        1.04297        0.01385
H         -3.27512        2.04115       -0.37194
H         -4.87212        0.86303       -1.75585
H         -5.83803        1.62381       -0.46248
H         -4.66445        2.36545        1.69426
H         -4.47886        0.63195        2.11825
H         -3.04693        1.70701        2.11925
H         -4.94421       -2.41955        0.05692
H         -1.32079        2.29489        0.03881
H         -0.98577       -2.03271       -0.09244
H          1.14116        2.49688        0.04750
H          1.52254       -1.83093       -0.08765
H          3.25063        1.47197        0.02352
