25
LEVODOPA.gamout	Energy:    -704.7320627
O          2.26383       -2.13720        0.54282
O         -2.89807       -1.38306       -0.15510
O          3.94241       -0.35820       -0.53456
O         -1.95719       -0.82326       -2.13910
N         -3.83890        1.25583       -0.17958
C         -1.44341        1.12687        0.68156
C         -2.44535        0.93759       -0.50439
C          0.00022        0.78257        0.37357
C          0.48358       -0.52346        0.61601
C          0.87201        1.73284       -0.19637
C          1.80379       -0.87827        0.30196
C         -2.39132       -0.48860       -1.05663
C          2.20033        1.38911       -0.51625
C          2.66740        0.09224       -0.27057
H         -1.80788        0.51295        1.53346
H         -1.52105        2.19218        0.99216
H         -2.12254        1.58199       -1.34840
H         -0.16972       -1.29195        1.05767
H          0.52003        2.75836       -0.39235
H          2.87890        2.13948       -0.95682
H         -3.89672        2.21802        0.18180
H         -4.15536        0.64133        0.58435
H          3.19663       -2.15454        0.24037
H         -2.83593       -2.26131       -0.59306
H          4.46287        0.35459       -0.94869
