39
LIDOCAINE.gamout	Energy:    -730.9485265
O         -0.47350        0.75894       -3.42909
N          2.59583        0.22194       -1.50164
N         -0.10061        0.30492       -1.17886
C          1.78299        0.25734       -2.71990
C          2.95396        1.58237       -1.05594
C          3.76715       -0.66560       -1.62326
C         -1.41538        0.29079       -0.63690
C          0.27335        0.49034       -2.49201
C         -1.79964       -0.84609        0.12920
C         -2.30184        1.38748       -0.82285
C          3.33223        1.67531        0.42377
C          3.41847       -2.15533       -1.59023
C         -3.09218       -0.88235        0.68525
C         -3.59267        1.29480       -0.25899
C         -0.83905       -1.99568        0.33398
C         -1.87899        2.63453       -1.55786
C         -3.99199        0.17560        0.48483
H          2.12235        1.02348       -3.46078
H          1.85844       -0.71951       -3.24245
H          3.77931        2.00243       -1.69047
H          2.07065        2.23043       -1.23883
H          4.34871       -0.42727       -2.55305
H          4.44923       -0.44511       -0.77623
H          0.69015       -0.04130       -0.60989
H          2.49734        1.33841        1.07264
H          4.22401        1.06334        0.67248
H          3.57192        2.72509        0.69133
H          2.89929       -2.42062       -0.64639
H          2.76292       -2.45614       -2.43422
H          4.34185       -2.76652       -1.66291
H         -3.39528       -1.76415        1.27319
H         -4.28876        2.13794       -0.39897
H         -0.42990       -2.36505       -0.63064
H          0.03477       -1.70738        0.96119
H         -1.33634       -2.84486        0.84253
H         -1.75315        2.42862       -2.64126
H         -2.61641        3.44938       -1.41883
H         -0.89155        2.99182       -1.19368
H         -5.00405        0.13035        0.91707
