29
LINALOOL.gamout	Energy:    -466.7283154
C         -2.00437        1.19010       -0.25276
C         -0.75022        2.05388       -0.25140
C         -0.82107        3.22080        0.74793
H          0.07267        3.86553        0.64104
H         -0.87188        2.86531        1.79775
H         -1.71526        3.85217        0.55900
C          0.48035        1.14723        0.00049
C          1.84692        1.83893       -0.13192
H          0.43360        0.30953       -0.72992
H          0.37597        0.68982        1.00885
C          3.01143        0.89065        0.04441
H          1.92652        2.66676        0.61131
H          1.89294        2.34003       -1.12567
C          4.31767        1.24613       -0.02688
C          4.72417        2.68109       -0.30636
H          5.82460        2.79774       -0.37233
H          4.36189        3.37130        0.48800
H          4.28759        3.05056       -1.26021
C          5.42886        0.24395        0.17409
H          6.09080        0.18717       -0.71988
H          5.03944       -0.77423        0.37690
H          6.08627        0.53572        1.02463
H          2.76976       -0.16953        0.24953
C         -3.07850        1.28893        0.55186
H         -1.99474        0.42375       -1.05103
H         -3.14502        2.03363        1.36214
H         -3.94263        0.61504        0.43300
O         -0.58018        2.56534       -1.59384
H         -1.37378        3.09971       -1.79126
