34
LINALYL_ACETATE.gamout	Energy:    -619.2631989
C          1.09294       -0.10072       -0.06504
C          0.69491       -0.83100        1.25013
O          0.54210        1.25140       -0.04407
C          0.40147       -0.76209       -1.24747
C          2.60954       -0.09273       -0.34309
C          1.15853       -2.29307        1.40152
C          0.78866        2.31159        0.78268
C         -0.54718       -0.20822       -2.01989
C          0.64365       -2.92931        2.68165
C          1.86548        2.26084        1.86027
O          0.12654        3.31553        0.61613
C          0.91597       -4.17621        3.14053
C          1.81597       -5.14990        2.41998
C          0.32570       -4.68385        4.43410
H         -0.41262       -0.78550        1.32049
H          1.08684       -0.25239        2.11286
H          0.74632       -1.79052       -1.45732
H          3.21328        0.21821        0.53171
H          2.82652        0.58935       -1.18857
H          2.94913       -1.10670       -0.63469
H          2.27157       -2.33456        1.37619
H          0.81965       -2.88771        0.52229
H         -0.90705        0.81546       -1.83575
H         -0.98796       -0.77204       -2.85643
H         -0.03170       -2.30697        3.29773
H          2.41957        1.31270        1.95431
H          1.38364        2.49816        2.82979
H          2.58324        3.08014        1.65200
H          2.19057       -4.76221        1.45369
H          1.28596       -6.10789        2.21894
H          2.69848       -5.41328        3.04602
H         -0.34316       -3.93901        4.90836
H          1.12212       -4.94481        5.16768
H         -0.26003       -5.61637        4.26992
