18
LINDANE.gamout	Energy:   -2992.6720555
Cl        -1.51572        2.69706       -2.02595
Cl        -2.82977        0.28986       -0.24608
Cl         1.21499        1.81241       -3.58596
Cl        -3.13096       -2.52062       -1.89212
Cl         0.91382       -0.99804       -5.23200
Cl        -0.40029       -3.40526       -3.45215
C         -0.93339        0.98847       -2.09776
C         -2.11938        0.02680       -1.88655
C         -0.23013        0.73596       -3.44485
C         -1.68586       -1.44416       -2.03324
C          0.20339       -0.73501       -3.59154
C         -0.98259       -1.69666       -3.38035
H         -0.20554        0.86387       -1.27002
H         -2.92080        0.25533       -2.61887
H         -0.90794        1.01015       -4.27962
H         -1.00801       -1.71837       -1.19850
H          1.00482       -0.96354       -2.85922
H         -1.71045       -1.57206       -4.20808
