50
LINOLENIC_ACID.gamout	Energy:    -853.7563120
C        139.28138       29.54425        0.12504
C        138.81475       28.72139        1.34758
C        137.75233       27.65903        1.01514
C        140.24892       30.64277        0.48448
C        137.29838       26.83417        2.23148
C        141.54301       30.76772        0.11617
C        136.15736       25.83459        1.95698
C        142.34009       29.84865       -0.78223
C        136.50969       24.68307        1.00309
C        142.82862       30.56978       -2.01802
C        135.36136       23.68746        0.81388
C        144.10580       30.79899       -2.39218
C        135.68148       22.55760       -0.14718
C        145.37492       30.37378       -1.68641
C        145.96277       32.13511        2.23709
C        146.60108       31.22598        1.17036
C        146.26230       31.55498       -1.36103
C        146.76643       31.91210       -0.16021
O        136.72025       22.41137       -0.76468
O        134.63891       21.68742       -0.25538
H        139.71733       28.86213       -0.63646
H        138.38319       29.99993       -0.35582
H        138.41345       29.41451        2.12278
H        139.70098       28.23486        1.81491
H        138.14716       26.98455        0.22236
H        136.86412       28.16033        0.56338
H        139.83913       31.42586        1.14964
H        136.96311       27.53318        3.03009
H        138.17189       26.29002        2.66080
H        142.09693       31.65118        0.48174
H        135.81977       25.41098        2.92949
H        135.27639       26.38983        1.55640
H        143.20388       29.43824       -0.21302
H        141.72089       28.97371       -1.08040
H        136.80304       25.07485        0.00550
H        137.40544       24.13848        1.37565
H        142.02810       30.97577       -2.66302
H        135.04770       23.22810        1.77857
H        134.44355       24.19232        0.43481
H        144.26229       31.37384       -3.32403
H        145.14946       29.77930       -0.77791
H        145.93536       29.68788       -2.36911
H        145.90502       31.62231        3.21905
H        146.55141       33.06658        2.37896
H        144.93457       32.43332        1.94429
H        146.00846       30.29176        1.06708
H        147.60629       30.90322        1.53175
H        146.51072       32.19962       -2.22485
H        147.38160       32.83148       -0.13170
H        134.93843       21.00323       -0.89420
