65
LOVASTATIN.gamout	Energy:   -1311.4013977
O          2.43767       -0.84685       -0.04492
O         -3.79572        0.75004        0.71591
O         -5.45593       -2.16349        0.50214
O          1.49906       -2.65924        0.97236
O         -5.35772        1.63582        2.02554
C          1.53668        1.35224        0.50069
C          0.33465        1.24573       -0.49016
C          2.03433        0.01177        1.06957
C         -0.04898        2.63816       -1.06910
C         -0.88302        0.50536        0.11740
C          2.71282        2.13008       -0.08316
C          3.21156        0.19729        2.03143
C          4.41356        0.96401        1.43572
C          3.98369        1.93398        0.36515
C         -2.05982        0.26900       -0.85500
C          1.16950        3.36596       -1.57339
C          2.42158        3.11682       -1.11681
C         -0.85066        3.54908       -0.11068
C         -3.32374       -0.28697       -0.19170
C          5.52494        0.02808        0.91801
C         -4.40701       -0.71423       -1.18210
C         -5.68711       -1.11077       -0.43531
C          2.15116       -2.17319        0.06200
C         -6.16850        0.09215        0.36642
C          2.79981       -2.97190       -1.06486
C         -5.09271        0.86390        1.12958
C          1.91265       -4.15208       -1.49638
C          4.17681       -3.46828       -0.57172
C          0.65142       -3.76072       -2.27274
H          1.16977        1.91929        1.39106
H          0.70336        0.64967       -1.35618
H          1.22352       -0.51523        1.60469
H         -0.70370        2.44926       -1.94976
H         -0.55877       -0.48380        0.50466
H         -1.26380        1.06308        1.00077
H          2.81746        0.73839        2.91721
H          3.52905       -0.79820        2.40014
H          4.86754        1.56566        2.25965
H          4.78968        2.53665       -0.08866
H         -2.34976        1.21464       -1.36398
H         -1.75258       -0.43380       -1.66196
H          1.01731        4.15323       -2.32932
H          3.27058        3.69484       -1.51860
H         -1.05799        4.52296       -0.59799
H         -0.27932        3.76686        0.81597
H         -1.82294        3.10292        0.17825
H         -3.07615       -1.16713        0.44539
H          5.90954       -0.62000        1.73206
H          5.13907       -0.61986        0.10625
H          6.37901        0.60747        0.51246
H         -4.02506       -1.56562       -1.78491
H         -4.62686        0.10670       -1.90111
H         -6.47678       -1.40506       -1.16741
H         -6.64870        0.82757       -0.31456
H         -6.93821       -0.21609        1.09931
H          2.96371       -2.27345       -1.91366
H          2.53044       -4.83645       -2.11510
H          1.63673       -4.71727       -0.58000
H         -5.12984       -2.93715        0.00496
H          4.83100       -2.63200       -0.25979
H          4.69512       -4.01629       -1.38271
H          4.06037       -4.15725        0.29079
H         -0.02172       -3.11924       -1.66520
H          0.07112       -4.65862       -2.56635
H          0.90118       -3.20375       -3.20105
