31
LUTEOLIN.gamout	Energy:   -1028.2214102
C         -0.57354        1.15645        0.07176
C         -0.12698        2.50015        0.11595
C         -1.92968        0.79225        0.03670
O          0.29850        0.10078        0.06053
C         -1.14267        3.50928        0.12327
C          1.33518        2.78571        0.15185
C         -2.50168        3.15994        0.08850
O         -0.75980        4.80608        0.16480
C         -2.89746        1.80843        0.04540
O         -4.23381        1.55237        0.01355
C          2.16520        1.57284        0.13524
O          1.83252        3.91625        0.19255
C          1.65258        0.30432        0.09156
C          2.39741       -0.96687        0.07236
C          3.79341       -3.45132        0.03515
C          2.37134       -3.43013        0.00883
C          4.48608       -2.22920        0.07928
O          4.40141       -4.66690        0.01570
C          1.70138       -2.20117        0.02755
O          1.73724       -4.63564       -0.03373
C          3.80856       -1.00496        0.09790
H         -2.19973       -0.27262        0.00361
H         -3.27988        3.93842        0.09444
H         -1.56691        5.35669        0.16394
H         -4.36546        0.58564       -0.01410
H          3.24973        1.73900        0.16054
H          5.58824       -2.24082        0.09978
H          5.36722       -4.52633        0.03756
H          0.60116       -2.19969        0.00692
H          0.77522       -4.47282       -0.04758
H          4.39650       -0.07814        0.13295
