24
LYSINE.gamout	Energy:    -496.6615064
C          3.53146        1.75836        0.01164
C          4.79534        1.03475        0.56600
C          5.99456        1.95315        0.32134
N          5.04426       -0.32346        0.09274
C          2.21136        1.06250        0.36627
O          6.16064        3.02501        0.87448
O          6.83612        1.48589       -0.63948
C          0.97436        1.80023       -0.16562
C         -0.35654        1.14387        0.21986
N         -1.48486        1.87094       -0.37017
H          3.62748        1.84805       -1.09530
H          3.52536        2.79541        0.41306
H          4.20826       -0.90435        0.23600
H          5.22986       -0.31396       -0.91976
H          2.13972        0.95974        1.47420
H          2.21391        0.02295       -0.03715
H          7.53048        2.17622       -0.73247
H          1.01851        1.87843       -1.27455
H          0.98472        2.84955        0.21262
H         -0.39627        1.04317        1.33840
H         -0.37696        0.10288       -0.17608
H         -1.54726        2.80832        0.05395
H         -2.36924        1.40496       -0.12600
H          4.69389        1.00281        1.67519
