15
M-2HEA+1.gamout	Energy:    -249.8674361
C         -6.98170        0.60533       -0.76959
N         -8.21244       -0.22975       -0.52480
H         -7.12050        1.17031       -1.70930
H         -6.11043       -0.06862       -0.86079
H         -6.83990        1.30136        0.07796
C         -8.51742       -1.24101       -1.60584
H         -9.03341        0.39546       -0.40181
C         -9.78013       -2.05412       -1.30116
H         -7.63948       -1.91150       -1.69337
H         -8.63007       -0.68883       -2.55987
O         -9.87516       -2.95260       -2.37262
H         -9.66893       -2.56210       -0.30685
H        -10.66034       -1.36433       -1.22160
H        -10.67328       -3.50479       -2.26870
H         -8.11611       -0.72589        0.38313
