14
M-CHLORONITROBENZENE.gamout	Energy:    -895.9497560
C          6.31466        1.89856       -0.68110
C          6.86780        0.65168       -0.34815
C          4.91835        2.08231       -0.73193
Cl         7.37641        3.24056       -1.03754
C          4.06638        1.00144       -0.44549
C          4.59172       -0.25635       -0.10987
C          5.98585       -0.40166       -0.06886
N          6.56178       -1.73229        0.28667
O          5.76754       -2.64357        0.52713
O          7.78998       -1.82957        0.31553
H          7.95204        0.48561       -0.30218
H          4.51110        3.06934       -0.99531
H          2.97571        1.14592       -0.48563
H          3.95549       -1.12177        0.11943
