14
M-CHLOROANILINE.gamout	Energy:    -746.8985560
C          6.33429        1.86781       -0.68929
C          6.86271        0.59681       -0.34638
C          4.92414        2.02732       -0.72579
N          7.18143        2.94289       -0.92695
C          5.99391       -0.46407       -0.05333
C          4.59642       -0.31488       -0.08791
Cl         6.68138       -2.02654        0.36587
C          4.08091        0.94833       -0.42872
H          7.95071        0.43678       -0.30375
H          4.49570        3.00844       -0.98699
H          6.79097        3.72701       -1.45175
H          8.14563        2.72426       -1.18245
H          3.93993       -1.16469        0.14454
H          2.98906        1.09209       -0.46545
