16
M-CRESOL.gamout	Energy:    -346.5332936
C          0.07560       -0.89883        0.15797
C         -1.17498       -0.26241        0.02522
C         -1.21294        1.14398       -0.10525
C         -0.02178        1.88933       -0.10190
C          1.22169        1.25262        0.03053
C          1.27051       -0.15245        0.16160
O          2.44554       -0.83850        0.29510
C         -2.44641       -1.08383        0.02435
H          0.14393       -1.99335        0.26216
H         -2.18234        1.65665       -0.20981
H         -0.05930        2.98581       -0.20408
H          2.15598        1.84015        0.03296
H          3.17987       -0.19548        0.28042
H         -2.55716       -1.65955        0.96812
H         -3.34451       -0.44461       -0.08817
H         -2.45097       -1.82202       -0.80618
