16
M-DINITROBENZENE.gamout	Energy:    -640.8218807
C          6.31807        1.91352       -0.68428
C          6.83386        0.65192       -0.34795
C          4.92439        2.08475       -0.73231
C          4.06732        1.00873       -0.44764
C          4.62881       -0.23438       -0.11565
C          6.01155       -0.44313       -0.05762
N          3.71872       -1.37989        0.18827
N          8.31531        0.46560       -0.29649
O          8.73093       -0.65372        0.00276
O          9.01358        1.44647       -0.55769
O          2.50729       -1.16471        0.12673
O          4.24448       -2.45448        0.47808
H          7.01759        2.73292       -0.90085
H          4.50237        3.06684       -0.99419
H          2.97314        1.10641       -0.47580
H          6.43195       -1.42284        0.20401
