30
M-DIISOPROPYLBENZENE.gamout	Energy:    -467.7775980
C          0.98102        3.66401        3.97692
C          1.55234        4.02314        2.59149
C          2.00793        5.49415        2.54103
C          2.66586        3.06990        2.17033
C          3.87225        2.98426        2.89969
C          2.52087        2.24667        1.03833
C          4.91761        2.11672        2.53367
C          3.55012        1.37177        0.65281
C          6.20411        2.05391        3.34821
C          4.73853        1.30666        1.39204
C          7.42995        2.47544        2.51720
C          6.41109        0.66526        3.98132
H          0.61395        2.61803        4.00336
H          1.75052        3.76959        4.77088
H          0.13460        4.33214        4.23971
H          0.73063        3.90357        1.85033
H          1.16837        6.17742        2.78730
H          2.38619        5.76518        1.53450
H          2.82312        5.69176        3.26925
H          4.01202        3.61810        3.79165
H          1.59005        2.29298        0.45032
H          3.42324        0.73414       -0.23561
H          6.10033        2.78676        4.17979
H          5.53528        0.61571        1.07516
H          8.34769        2.48185        3.14187
H          7.60905        1.77981        1.66949
H          7.29938        3.49107        2.09167
H          7.32085        0.65378        4.61694
H          6.53410       -0.11933        3.20479
H          5.54699        0.37716        4.61358
