12
M-DICHLOROBENZENE.gamout	Energy:   -1151.0759059
Cl        -2.72215        0.83454       -0.00020
C         -1.20766       -0.04626       -0.00020
C          0.00000        0.67388        0.00011
C          1.20766       -0.04626       -0.00015
C          1.22332       -1.45292       -0.00053
C         -0.00000       -2.14353       -0.00074
C         -1.22332       -1.45291        0.00168
Cl         2.72215        0.83454        0.00010
H          0.00001        1.77235        0.00022
H          2.18237       -1.99028       -0.00081
H         -0.00001       -3.24501       -0.00127
H         -2.18237       -1.99027        0.00113
