19
M-ETHYLPHENOL.gamout	Energy:    -385.8145074
C         -0.71795        0.65897        0.17103
C         -1.13737       -0.68877        0.20827
C          0.65053        0.94932        0.06857
C          1.60435       -0.08229        0.00224
C         -0.18196       -1.72051        0.14058
C          1.19534       -1.43343        0.03696
C          2.17860       -2.59562       -0.03453
C          3.66347       -2.23817       -0.14527
H          1.88877       -3.23718       -0.89777
H          2.01990       -3.23848        0.86115
H          3.87866       -1.64559       -1.05933
H          4.28248       -3.15736       -0.19403
H          4.01308       -1.64788        0.72743
O         -2.45278       -1.04750        0.30896
H         -2.99168       -0.23456        0.34600
H         -0.54042       -2.76228        0.17171
H         -1.46290        1.47175        0.22304
H          0.97827        2.00099        0.03938
H          2.67114        0.17227       -0.07800
