21
M-ETHYLTOLUENE.gamout	Energy:    -349.9314811
C          1.03231        2.34631        1.58764
C          1.93793        1.99877        0.38921
C          3.41269        2.22476        0.66894
C          4.01243        3.47666        0.41120
C          4.21222        1.20356        1.22492
C          5.37029        3.73335        0.69356
C          5.56783        1.43630        1.51077
C          5.97876        5.09379        0.42850
C          6.14396        2.68928        1.24735
H          1.28834        1.73091        2.47532
H          1.14515        3.41143        1.87956
H         -0.03732        2.16994        1.34728
H          1.63343        2.60885       -0.48907
H          1.77599        0.93614        0.10471
H          3.39889        4.28074       -0.03210
H          3.76831        0.21427        1.42669
H          6.18522        0.62844        1.93597
H          6.03274        5.69802        1.36099
H          7.01370        5.00909        0.03712
H          5.38189        5.67280       -0.30482
H          7.21082        2.86022        1.46813
