13
M-FLUOROPHENOL.gamout	Energy:    -406.4089487
C          6.33863        1.86425       -0.67174
C          6.87362        0.60102       -0.33455
C          4.94784        2.03570       -0.71967
C          4.06745        0.97428       -0.43843
C          4.62419       -0.26744       -0.10677
C          6.00943       -0.47739       -0.04861
F          3.80629       -1.30577        0.16894
O          8.23118        0.47690       -0.29929
H          7.02975        2.69106       -0.89082
H          4.53540        3.02246       -0.98307
H          2.97515        1.09264       -0.47138
H          6.39354       -1.47494        0.21781
H          8.45692       -0.44069       -0.05438
