19
M-METHYLSTYRENE.gamout	Energy:    -348.7041914
C          5.82275        4.30593        0.34586
C          4.99650        3.26808        0.60621
C          3.62276        3.32423        1.14123
C          2.91841        2.11427        1.35141
C          2.96703        4.53958        1.46191
C          1.60440        2.08284        1.86190
C          1.66350        4.52743        1.97212
C          0.87628        0.76960        2.05102
C          0.98407        3.31134        2.17361
H          5.53029        5.35454        0.51902
H          6.83428        4.13628       -0.05468
H          5.36932        2.24683        0.40441
H          3.42129        1.16245        1.10718
H          3.48342        5.50071        1.31373
H          1.16553        5.47848        2.22085
H          0.12790        0.83102        2.86683
H          0.33005        0.47611        1.12728
H          1.57763       -0.05582        2.28979
H         -0.04120        3.31720        2.57911
