16
M-NITROANILINE.gamout	Energy:    -491.7749147
O          6.67631        4.05173       -1.24507
N          7.18881        2.96976       -0.94836
O          8.40290        2.76398       -0.86045
C          6.27234        1.82538       -0.67582
C          6.84478        0.59142       -0.34754
C          4.88732        2.03406       -0.75578
C          6.00163       -0.51555       -0.08074
C          4.05680        0.93275       -0.48882
N          6.53471       -1.76243        0.19510
C          4.59502       -0.31924       -0.15821
H          7.94051        0.51355       -0.30554
H          4.50056        3.02743       -1.01636
H          2.96281        1.05052       -0.53785
H          5.92901       -2.44946        0.64486
H          7.51059       -1.80543        0.49037
H          3.92150       -1.16806        0.04390
