17
M-NITROTOLUENE.gamout	Energy:    -475.7388373
C          6.34729        1.90670       -0.59680
C          6.91144        0.63528       -0.33387
C          4.95547        2.09715       -0.63228
C          4.08485        1.01944       -0.40620
C          4.64940       -0.23693       -0.14713
N          3.74490       -1.39475        0.09377
C          6.03650       -0.44492       -0.10794
C          8.41153        0.44663       -0.29169
O          2.53018       -1.18451        0.05301
O          4.26793       -2.48930        0.31855
H          7.01552        2.76470       -0.77804
H          4.54305        3.09695       -0.83972
H          2.99186        1.12651       -0.42643
H          6.41124       -1.45751        0.09976
H          8.89027        0.80633       -1.22679
H          8.86442        1.01937        0.54594
H          8.68325       -0.61853       -0.15725
