16
M-PHENYLENEDIAMINE.gamout	Energy:    -342.7181494
N          7.19935        2.91049       -1.04008
C          6.35667        1.85667       -0.68228
C          6.89325        0.58802       -0.34238
C          4.95245        2.02025       -0.71577
C          6.02415       -0.47299       -0.04962
C          4.63086       -0.31488       -0.08256
C          4.07928        0.94824       -0.41888
N          2.69812        1.14877       -0.39612
H          6.80914        3.84923       -0.93366
H          8.15633        2.84792       -0.68690
H          7.98504        0.44220       -0.31747
H          4.52979        3.00531       -0.97877
H          6.44646       -1.45684        0.21291
H          3.96493       -1.15938        0.15679
H          2.35084        1.92589       -0.96206
H          2.12863        0.30711       -0.50514
