32
M-TERPHENYL.gamout	Energy:    -693.8530227
C          3.88088        2.95559        5.95288
C          4.87214        3.62801        5.20205
C          5.63130        4.62982        5.84916
C          5.11090        3.27984        3.77128
C          3.63271        3.25292        7.31157
C          5.39917        4.93830        7.19703
C          5.40924        4.27875        2.81497
C          5.04393        1.93803        3.32908
C          4.41155        4.26004        7.92528
C          2.57516        2.53304        8.07683
C          5.63059        3.94817        1.46975
C          5.26386        1.60723        1.98409
C          2.77467        2.17735        9.43088
C          1.34311        2.18500        7.47605
C          5.55843        2.61096        1.04708
C          1.78276        1.50099       10.15544
C          0.35139        1.50749        8.19980
C          0.56534        1.16184        9.54338
H          3.28263        2.17385        5.46214
H          6.42748        5.15135        5.29744
H          5.99723        5.71964        7.68842
H          5.44212        5.33386        3.12687
H          4.84084        1.13808        4.05723
H          4.22206        4.53173        8.97476
H          5.85259        4.74513        0.74364
H          5.21322        0.55410        1.66883
H          3.73429        2.41299        9.91547
H          1.14791        2.47386        6.43208
H          5.73161        2.35197       -0.00859
H          1.96737        1.22896       11.20592
H         -0.60168        1.25615        7.71032
H         -0.21358        0.63079       10.11117
