18
M-TOLUIC_ACID.gamout	Energy:    -459.8107160
O          7.05872        4.04791       -1.68740
C          7.59565        2.87709       -1.23957
O          8.80194        2.70899       -1.14825
C          6.55831        1.85987       -0.88628
C          7.00181        0.60701       -0.40954
C          5.17715        2.11586       -1.01504
C          6.08993       -0.40427       -0.05584
C          4.25745        1.11438       -0.66520
C          6.56382       -1.74722        0.45406
C          4.70847       -0.12881       -0.19202
H          7.82995        4.62420       -1.88314
H          8.08786        0.44405       -0.32234
H          4.83551        3.09264       -1.38633
H          3.17658        1.30388       -0.76228
H          7.66958       -1.79806        0.49860
H          6.17416       -1.95425        1.47382
H          6.21310       -2.57441       -0.19951
H          3.97351       -0.90548        0.07855
