16
M-TOLUNITRILE.gamout	Energy:    -363.5383379
N          7.90882        3.86226       -1.23361
C          7.19053        2.96606       -0.98496
C          6.31232        1.86818       -0.68132
C          6.85584        0.60434       -0.34101
C          4.90926        2.04797       -0.72042
C          6.01882       -0.48582       -0.03956
C          4.07257        0.96360       -0.41910
C          6.59226       -1.84037        0.31355
C          4.61935       -0.28529       -0.08316
H          7.94978        0.48266       -0.31411
H          4.49100        3.03053       -0.98386
H          2.97950        1.09468       -0.44527
H          7.69410       -1.80383        0.42120
H          6.16781       -2.21931        1.26658
H          6.35552       -2.59208       -0.46983
H          3.94678       -1.12649        0.15262
