9
MALEIC_ANHYDRIDE.gamout	Energy:    -379.0245320
C          0.89076        2.84191        0.05675
O         -0.08074        3.55279        0.06425
O          2.19772        3.34803        0.02623
C          0.98690        1.34698        0.07578
C          3.09797        2.27346        0.02455
C          2.29295        1.01094        0.05692
O          4.29183        2.42680        0.00171
H          0.09693        0.70437        0.10086
H          2.76345        0.01884        0.06228
