12
MALEIC_ACID.gamout	Energy:    -455.4066536
C          1.10591        2.12166        0.96397
C          1.72186        0.92055        1.06182
C          1.72331        3.47865        0.86062
C          3.18535        0.62781        1.14004
O          2.79936        3.65127        1.66749
O          1.27016        4.35676        0.14675
O          3.94087        1.39579        0.31634
O          3.64516       -0.25106        1.84870
H          0.00526        2.14600        0.89744
H          1.09955        0.01417        1.14907
H          3.12080        4.56341        1.48674
H          4.87145        1.12202        0.48069
