11
MALONIC_ACID.gamout	Energy:    -417.3566865
C          2.75636        1.71122        1.42941
C          1.87998        0.56866        0.92937
C          4.24957        1.40095        1.43588
O          2.15482       -0.58404        1.59554
O          1.02516        0.65656        0.07172
O          4.64220        0.86323        0.25113
O          5.01213        1.62296        2.35397
H          2.56454        2.58266        0.77326
H          2.47414        1.97283        2.46781
H          1.55808       -1.26338        1.20910
H          5.60673        0.69370        0.34041
