7
MALONONITRILE.gamout	Energy:    -224.8069665
C          3.37788        0.68259        0.95889
C          2.13898        1.47461        0.89210
C          0.91914        0.65371        0.82312
N          4.37424        0.07160        1.01270
N         -0.06252        0.01952        0.76739
H          2.18094        2.14019        0.00140
H          2.08121        2.13656        1.78461
