62
MEDROXYPROGESTERONE_ACETATE.gamout	Energy:   -1235.0343939
O         -3.15665        0.16538        1.25505
O         -4.89257        0.21532       -1.85003
O          6.46650        0.52252        1.73303
O         -5.34375       -0.42688        1.43963
C         -1.74871        0.35639       -0.70556
C         -0.90210       -0.87411       -0.26795
C          0.59137       -0.79055       -0.66161
C          1.20904        0.50515       -0.06509
C         -3.17729       -0.08344       -0.18510
C          2.75368        0.67771       -0.34508
C         -1.12461        1.61187       -0.07253
C          0.36884        1.74936       -0.43812
C         -1.75237       -2.08136       -0.70402
C          1.39616       -2.01537       -0.19772
C         -3.21692       -1.61250       -0.47443
C          2.89808       -1.90869       -0.55111
C          3.49236       -0.62252       -0.00021
C         -1.80610        0.51079       -2.23915
C          3.29320        1.84002        0.53299
C          3.02811        0.99327       -1.83690
C         -4.35006        0.68532       -0.86156
C          4.81914        1.91141        0.63722
C          4.66303       -0.61633        0.70098
C          3.65790       -3.19201       -0.19092
C          5.40957        0.59239        1.10696
C         -4.69906        2.08158       -0.36683
C         -4.28918       -0.10390        1.95711
C         -4.05030        0.06453        3.43890
H         -0.92769       -0.85901        0.84698
H          0.66109       -0.74528       -1.77401
H          1.12771        0.38372        1.04192
H         -1.23322        1.55272        1.02957
H         -1.65797        2.52880       -0.39873
H          0.46807        1.95566       -1.52563
H          0.77182        2.64514        0.07560
H         -1.51870       -2.99196       -0.11877
H         -1.57406       -2.33411       -1.77242
H          0.99149       -2.94129       -0.65707
H          1.29168       -2.13726        0.90599
H         -3.86873       -1.78841       -1.35188
H         -3.69824       -2.13160        0.37617
H          2.94564       -1.80154       -1.66298
H         -2.38326       -0.29641       -2.72589
H         -2.28559        1.46853       -2.52212
H         -0.79062        0.51533       -2.67492
H          2.87929        1.72598        1.55963
H          2.90605        2.80225        0.14604
H          2.57297        0.24440       -2.51433
H          2.62792        1.98791       -2.11475
H          4.11654        0.99942       -2.04191
H          5.14588        2.70498        1.33618
H          5.28322        2.15554       -0.34682
H          5.17388       -1.55614        0.95210
H          3.67344       -3.36943        0.90532
H          3.17392       -4.06912       -0.66618
H          4.70712       -3.16019       -0.54446
H         -4.88517        2.12440        0.72260
H         -3.85540        2.77136       -0.58085
H         -5.59493        2.42253       -0.91382
H         -3.64675        1.07499        3.65135
H         -3.29139       -0.66594        3.78564
H         -4.99746       -0.08892        3.98419
