39
MEPERIDINE.gamout	Energy:    -788.8666209
O         -1.90062       -1.39006        0.44889
O         -1.32751       -1.79686       -1.70736
N          3.16585       -0.94150        0.23783
C          0.24617       -0.58730       -0.25152
C          1.28857       -0.83308       -1.37345
C          0.83799       -1.18747        1.05419
C          2.68110       -0.31849       -0.99396
C          2.25729       -0.68510        1.35309
C         -0.15601        0.90515       -0.13503
C         -1.06011       -1.33247       -0.61317
C          4.53257       -0.55910        0.54784
C         -0.48743        1.63058       -1.30375
C         -0.28950        1.56674        1.10531
C         -0.90918        2.96900       -1.23792
C         -0.71053        2.90623        1.17558
C         -1.01905        3.61691        0.00411
C         -3.17873       -2.03411        0.21976
C         -3.96235       -1.99506        1.51915
H          0.96170       -0.37768       -2.32847
H          1.34589       -1.92602       -1.55805
H          0.88342       -2.29075        0.92780
H          0.17000       -0.99977        1.91724
H          3.39337       -0.56245       -1.81210
H          2.66581        0.80497       -0.91174
H          2.23331        0.40908        1.61688
H          2.64506       -1.21250        2.25260
H          5.20451       -0.82472       -0.29545
H          4.88713       -1.10420        1.44825
H          4.65583        0.54179        0.74692
H         -0.42998        1.13730       -2.28639
H         -0.06371        1.03686        2.04172
H         -1.15542        3.50723       -2.16735
H         -0.80112        3.39524        2.15895
H         -1.35064        4.66596        0.06016
H         -3.70078       -1.50310       -0.60539
H         -2.99643       -3.07214       -0.13341
H         -4.94155       -2.49867        1.38548
H         -3.41523       -2.51648        2.33092
H         -4.15086       -0.95125        1.84244
