17
MESITYL_OXIDE.gamout	Energy:    -309.6402440
C          3.25489        1.35884        2.23590
C          4.46128        1.99486        2.14487
C          1.98111        1.70929        1.54546
C          5.64648        1.48399        2.92740
C          4.71844        3.21117        1.29490
C          0.80319        0.79141        1.86759
O          1.83945        2.65410        0.76708
H          3.19923        0.47539        2.89704
H          6.03550        2.27297        3.60893
H          5.40381        0.58798        3.53210
H          6.48557        1.22743        2.24256
H          5.08990        4.04639        1.92972
H          5.53035        2.99753        0.56387
H          3.80954        3.52982        0.75568
H          1.03657       -0.25838        1.58663
H          0.59333        0.79180        2.95913
H         -0.09333        1.13186        1.31701
