18
METHYL_BENZOATE.gamout	Energy:    -459.7933094
C          0.95254        3.24123       -0.20966
O          0.57638        1.90891        0.17102
C          0.04398        1.14885       -0.82537
O         -0.11073        1.55721       -1.96559
C         -0.32072       -0.22605       -0.35710
C         -0.12119       -0.65209        0.97469
C         -0.88203       -1.11550       -1.29929
C         -0.48000       -1.95492        1.35538
C         -1.03817       -2.83772        0.41292
C         -1.23897       -2.41640       -0.91474
H          1.72339        3.22066       -1.00703
H          0.07546        3.80554       -0.58770
H          1.35378        3.71773        0.70327
H          0.31669        0.04413        1.70449
H         -1.02772       -0.76114       -2.33123
H         -0.32276       -2.28394        2.39478
H         -1.31850       -3.85966        0.71487
H         -1.67612       -3.10701       -1.65318
