21
METHYL_PENTYL_SULFIDE.gamout	Energy:    -634.9961785
S         -2.69830       -0.73769        0.00999
C          1.34441        0.36411       -0.00147
C          0.06569       -0.48925        0.00419
C          2.63862       -0.46524       -0.00055
C         -1.21617        0.35075        0.00301
C          3.91364        0.38673       -0.00643
C         -4.01129        0.52859        0.00741
H          1.34123        1.04087        0.88450
H          1.33797        1.03383       -0.89273
H          0.06394       -1.15533        0.89643
H          0.06090       -1.16230       -0.88281
H          2.64057       -1.13525        0.88927
H          2.63717       -1.14229       -0.88505
H         -1.25300        1.00547       -0.89664
H         -1.24997        1.01271        0.89749
H          3.96067        1.04037       -0.90391
H          3.96414        1.04767        0.88551
H          4.82716       -0.24358       -0.00563
H         -3.96284        1.17194        0.91112
H         -4.97879       -0.01142        0.01133
H         -3.96617        1.16471       -0.90157
