17
METHYL_ISOBUTYRATE.gamout	Energy:    -346.7565207
C          0.25960        0.30835       -0.04225
C         -1.13384       -0.22658       -0.38184
C         -1.44164       -1.51153        0.41625
C         -2.19344        0.86360       -0.18296
O          0.51561        1.41969        0.38490
O          1.21774       -0.63182       -0.27836
C          2.56376       -0.23180        0.02237
H         -1.08779       -0.50740       -1.45995
H         -2.43123       -1.92120        0.12570
H         -0.67549       -2.29045        0.23601
H         -1.47230       -1.30204        1.50680
H         -1.96600        1.76586       -0.78429
H         -3.19558        0.48918       -0.47667
H         -2.23789        1.18041        0.87940
H          2.85951        0.65170       -0.58032
H          2.66843        0.03197        1.09502
H          3.20408       -1.09830       -0.22506
