28
METHYL_N-HEPTYL_KETONE.gamout	Energy:    -428.7062977
C          0.91819       -0.24848       -0.00000
C         -0.40714        0.52717       -0.00000
C          2.15538        0.65111       -0.00000
C         -1.65029       -0.37634       -0.00000
C         -2.98147        0.39014        0.00000
C         -4.22281       -0.51670       -0.00000
C          4.75791        0.75077        0.00000
C         -5.55036        0.25221        0.00000
O          3.54676       -1.31900        0.00000
C          3.48586       -0.09782        0.00000
H          0.96693       -0.92377        0.88229
H          0.96693       -0.92377       -0.88229
H         -0.44407        1.20123        0.88760
H         -0.44407        1.20123       -0.88760
H          2.16057        1.33923       -0.87973
H          2.16057        1.33923        0.87973
H         -1.61242       -1.04986       -0.88733
H         -1.61242       -1.04987        0.88732
H         -3.01972        1.06382        0.88782
H         -3.01972        1.06383       -0.88782
H          4.56656        1.84170       -0.00000
H          5.36634        0.48376        0.88902
H          5.36635        0.48376       -0.88901
H         -4.18107       -1.18968       -0.88682
H         -4.18107       -1.18969        0.88681
H         -5.64048        0.90477        0.89485
H         -5.64049        0.90478       -0.89483
H         -6.42119       -0.43615        0.00000
