7
METHYLACETYLENE.gamout	Energy:    -116.5628775
C          0.38295        0.84384        0.59047
C          1.84301        0.84452        0.60929
C          3.06599        0.84511        0.62509
H         -0.01444        1.78022        0.14393
H         -0.01204       -0.00647       -0.00530
H         -0.03344        0.75780        1.61668
H          4.14689        0.84568        0.63875
