8
METHYL_NITRATE.gamout	Energy:    -319.9814647
O          1.95955        1.51761        1.75343
C          0.75062        1.08754        1.12464
N          3.15448        1.08205        1.03468
O          2.97533        0.43216        0.02386
O          4.16911        1.44723        1.57306
H         -0.04682        1.49094        1.77808
H          0.64686        1.50152        0.09992
H          0.67924       -0.01933        1.07949
