21
METHYL_GALLATE.gamout	Energy:    -685.3032394
O          1.39663       -3.07180        0.03178
O          2.96002        1.36876       -0.01466
O         -2.84845       -0.30502       -0.55439
O          3.38794       -1.30994        0.15943
O         -2.14650        1.85630       -0.58258
C         -0.52132        0.09626       -0.32559
C          0.55824        1.00252       -0.25378
C         -0.28390       -1.29352       -0.23362
C          1.03019       -1.74799       -0.07114
C          1.87593        0.54543       -0.09105
C          2.12257       -0.84840        0.00218
C         -1.88647        0.66448       -0.49812
C         -4.18797        0.17715       -0.71887
H          0.34165        2.08062       -0.32820
H         -1.12422       -2.00142       -0.28929
H          0.60262       -3.63445       -0.02587
H          2.64527        2.28944       -0.09267
H          3.31870       -2.28814        0.19892
H         -4.83600       -0.71821       -0.74781
H         -4.48053        0.83634        0.12473
H         -4.28947        0.75579       -1.66037
