14
METHYL_PROPIONATE.gamout	Energy:    -307.4740091
C          0.02091        0.07815       -0.00039
C         -1.23821       -0.77601       -0.00061
C         -2.52562        0.04702        0.00120
O          0.06053        1.29499       -0.00127
O          1.13477       -0.70559        0.00075
C          2.38583        0.00023        0.00032
H         -1.17828       -1.45136       -0.88284
H         -1.17720       -1.45368        0.87974
H         -2.58124        0.70148        0.89417
H         -2.58230        0.70375       -0.89004
H         -3.41472       -0.61561        0.00091
H          2.47841        0.64357       -0.89889
H          2.47845        0.64460        0.89879
H          3.17397       -0.77514        0.00077
