15
METHYL_ISOPROPYL_ETHER.gamout	Energy:    -233.4747960
O          1.80032        2.17100        2.72409
C          1.67522        3.48245        2.21681
C          2.09417        1.13120        1.77977
C          3.47721        1.29801        1.13049
C          0.97528        0.93270        0.74543
H          1.46431        4.14083        3.08369
H          0.83520        3.59748        1.48925
H          2.60523        3.85750        1.72409
H          2.12738        0.22461        2.42395
H          3.75805        0.38019        0.57358
H          4.24893        1.48081        1.90605
H          3.50177        2.14139        0.40804
H         -0.00939        0.85400        1.25018
H          1.14268       -0.00006        0.16789
H          0.92471        1.76616        0.01271
