14
METHYLETHANOLAMINE.gamout	Energy:    -249.4981931
C         -1.48984        0.12036        0.26563
C         -0.01885        0.50656        0.11895
C         -3.77468        0.98077        0.16034
N         -2.35162        1.28902        0.15229
H         -4.03062        0.37058       -0.73337
H         -4.36607        1.91789        0.09644
H         -4.13187        0.40719        1.05780
H         -1.61659       -0.45699        1.22178
H         -1.74011       -0.58959       -0.55448
H         -2.14116        1.94708        0.91461
O          0.75697       -0.68116        0.18567
H          0.25614        1.22829        0.93319
H          0.10691        1.05277       -0.84841
H          1.68869       -0.43369        0.04776
