23
METHYL_P-COUMARATE.gamout	Energy:    -612.3105834
C         -0.74018        1.24106        0.06407
C         -1.23500       -0.06471        0.01506
C          0.65184        1.48166       -0.02482
C         -0.36554       -1.17836       -0.12419
C          1.02771       -0.91102       -0.21132
C         -0.83225       -2.56120       -0.18102
C          1.53567        0.38974       -0.16348
O          1.18563        2.73235        0.01764
C         -2.11151       -3.02189       -0.11492
C         -2.38093       -4.47356       -0.19336
C         -4.09381       -6.10334       -0.17845
O         -3.72533       -4.72069       -0.10847
O         -1.54910       -5.36192       -0.31785
H         -1.43579        2.09105        0.17254
H         -2.32206       -0.22424        0.08610
H          1.72581       -1.75699       -0.31990
H         -0.05041       -3.33489       -0.29208
H          2.61599        0.58742       -0.23157
H          0.46127        3.38032        0.11499
H         -2.98442       -2.35981       -0.00392
H         -3.63030       -6.68173        0.64776
H         -5.19613       -6.13324       -0.09627
H         -3.76736       -6.55369       -1.13897
