16
METHYLGLUTARONITRILE.gamout	Energy:    -342.6684916
C         53.00001       30.01232       -0.02717
C         51.68539       29.18872       -0.03350
C         50.84950       29.53947       -1.19628
C         51.96002       27.66936        0.01223
C         52.76335       31.53844       -0.01616
N         50.20001       29.82998       -2.12816
C         54.00972       32.30794        0.04294
N         55.01610       32.90636        0.09359
H         53.58222       29.71672        0.87021
H         53.61042       29.73502       -0.91211
H         51.09601       29.47028        0.86966
H         51.01554       27.09118        0.03648
H         52.54424       27.41869        0.92045
H         52.54038       27.34544       -0.87486
H         52.20090       31.84892       -0.92399
H         52.13571       31.82915        0.85535
