11
METHYL_ACETATE.gamout	Energy:    -268.1900485
O          2.35857        2.48135        0.98370
C          1.97781        1.17308        0.95537
C          0.46861        1.05167        1.01181
O          2.76723        0.24968        0.88870
C          3.77636        2.70875        0.92642
H          0.06878        1.59869        1.88924
H          0.01654        1.51038        0.10840
H          0.18859       -0.01517        1.06691
H          4.20771        2.28975       -0.00601
H          4.28908        2.23250        1.78748
H          3.91101        3.80546        0.95562
