47
METHYL_TETRADECANOATE.gamout	Energy:    -739.5603069
C          2.00324        0.70469        0.50094
O          3.28207        0.16462        0.17428
C          3.52726       -0.94554       -0.58356
C          2.43200       -1.83473       -1.21520
O          4.69037       -1.24316       -0.76571
C          0.90887       -1.64947       -1.09490
C          0.13774       -2.73820       -1.86934
C         -1.39249       -2.60384       -1.77424
C         -2.17472       -3.68034       -2.54976
C         -3.70502       -3.54579       -2.44129
C         -4.49655       -4.61583       -3.21662
C         -6.02557       -4.48000       -3.09031
C         -6.82852       -5.54536       -3.86039
C         -8.35565       -5.40837       -3.71485
C         -9.16856       -6.47068       -4.47605
C        -10.69153       -6.33073       -4.31275
C        -11.49660       -7.39540       -5.06937
H          2.20979        1.59497        1.12490
H          1.38162        0.00059        1.09132
H          1.43887        1.03164       -0.39684
H          2.70360       -2.85277       -0.85729
H          2.71445       -1.85337       -2.29123
H          0.59859       -0.65507       -1.48266
H          0.59289       -1.67944       -0.02936
H          0.44515       -3.74282       -1.49559
H          0.44799       -2.71422       -2.94012
H         -1.69670       -1.59584       -2.14188
H         -1.69427       -2.63211       -0.70112
H         -1.86859       -4.68946       -2.18718
H         -1.87558       -3.64860       -3.62338
H         -4.01241       -2.53484       -2.79816
H         -3.99741       -3.58203       -1.36575
H         -4.18843       -5.62788       -2.86372
H         -4.20913       -4.57808       -4.29328
H         -6.33551       -3.46663       -3.43795
H         -6.30480       -4.52113       -2.01146
H         -6.51770       -6.55917       -3.51489
H         -6.55487       -5.50426       -4.94050
H         -8.66919       -4.39404       -4.05644
H         -8.62195       -5.45167       -2.63284
H         -8.85724       -7.48620       -4.13559
H         -8.91011       -6.42940       -5.56004
H        -11.00582       -5.31663       -4.65125
H        -10.94575       -6.37327       -3.22879
H        -11.30089       -7.35468       -6.16244
H        -12.58758       -7.26044       -4.92104
H        -11.23796       -8.42039       -4.72632
