19
METHYL_SALICYLATE.gamout	Energy:    -534.9578688
O          1.81558        2.27733        3.13350
C          2.44591        1.42326        2.26513
O          1.83266        0.76339        1.44393
C          3.92647        1.43237        2.47642
C          0.38989        2.32862        3.00288
C          4.79292        0.64449        1.65944
C          4.50378        2.22553        3.49748
O          4.27592       -0.12482        0.67124
C          6.18773        0.68161        1.89428
C          5.88493        2.25480        3.72381
C          6.72958        1.47479        2.91255
H         -0.06411        1.33309        3.18911
H          0.04006        3.05645        3.75810
H          0.09442        2.65684        1.98487
H          3.82739        2.82821        4.11932
H          5.01732       -0.58124        0.22677
H          6.84839        0.06900        1.25620
H          6.30211        2.88153        4.52647
H          7.81968        1.48211        3.07160
