11
METHYL_CHLOROACETATE.gamout	Energy:    -727.6783549
Cl        -2.09929        0.07080        0.77217
O          1.44729        0.52402       -0.11446
O          0.41073       -1.45272       -0.55352
C         -0.89215        0.60895       -0.45358
C          0.36674       -0.25234       -0.38261
C          2.70290       -0.17764       -0.04021
H         -0.65747        1.67341       -0.27242
H         -1.35421        0.48608       -1.45278
H          2.67058       -0.94793        0.75667
H          3.46578        0.58790        0.18892
H          2.93049       -0.67853       -1.00328
