51
METHYL_PALMITOLEATE.gamout	Energy:    -816.9200782
O         -5.10145        0.03438       -0.29504
O         -4.23272        1.56766       -1.72466
C         -0.12333        2.71550        0.27017
C          1.17003        1.88254        0.26587
C         -1.40386        1.87854        0.43087
C          2.44751        2.70696        0.04717
C         -2.69178        2.71537        0.49053
C          3.75461        1.88595        0.10636
C          2.36678       -2.38880        0.59537
C          3.86643       -2.55063        0.30430
C          1.57861       -3.70856        0.64608
C          4.64220       -1.21613        0.21207
C          3.91099        0.91525       -1.03622
C         -3.97055        1.88465        0.68054
C          4.28385       -0.38391       -0.99182
C          0.07498       -3.52714        0.91396
C         -0.71244       -4.84305        0.95271
C         -4.41789        1.17474       -0.58665
C         -5.60405       -0.68564       -1.43123
H         -0.07151        3.46669        1.09356
H         -0.18775        3.30937       -0.67112
H          1.25383        1.33434        1.23322
H          1.10472        1.09284       -0.51714
H         -1.32755        1.26122        1.35635
H         -1.47327        1.15395       -0.41230
H          2.39032        3.22634       -0.93788
H          2.49842        3.51654        0.80900
H         -2.80247        3.30158       -0.44760
H         -2.61851        3.45092        1.31998
H          4.60705        2.60465        0.07993
H          3.83078        1.36239        1.08423
H          1.91697       -1.71884       -0.17289
H          2.24429       -1.85265        1.56559
H          4.33468       -3.18196        1.09219
H          4.00042       -3.11438       -0.64912
H          2.01059       -4.36965        1.43429
H          1.71560       -4.26187       -0.31288
H          5.72964       -1.45702        0.16293
H          4.50648       -0.63341        1.14978
H          3.71123        1.34464       -2.03654
H         -4.81260        2.55340        0.96877
H         -3.87903        1.14119        1.49928
H          4.36133       -0.91735       -1.95871
H         -0.05995       -2.98830        1.88013
H         -0.35734       -2.85563        0.13723
H         -0.34544       -5.51292        1.75999
H         -1.79190       -4.66422        1.13488
H         -0.62440       -5.40183       -0.00418
H         -6.11172       -1.58011       -1.02682
H         -4.77553       -0.98223       -2.10659
H         -6.31811       -0.06596       -2.01224
