18
METHYL_N-BUTYL_SULFIDE.gamout	Energy:    -595.7127027
C          3.71776        1.58549        3.15215
S          2.12450        1.01650        3.86988
C          0.97741        2.29408        3.24702
C          3.85723        1.38638        1.63605
C          5.19687        1.88448        1.05519
C          6.43276        1.10817        1.53219
H          4.47921        0.99580        3.70557
H          3.87593        2.65215        3.43134
H         -0.01639        2.05451        3.67528
H          0.88892        2.28482        2.14094
H          1.27222        3.30897        3.58776
H          3.02628        1.91862        1.12280
H          3.72203        0.30572        1.40628
H          5.32092        2.96623        1.29307
H          5.13802        1.82466       -0.05438
H          7.35527        1.47146        1.03303
H          6.33858        0.02368        1.30732
H          6.59659        1.20592        2.62628
