17
METHYL_NICOTINATE.gamout	Energy:    -475.8184799
O          2.07413        0.79705       -0.00039
O          1.88527       -1.46732       -0.00061
N         -2.01023        1.39429        0.00011
C         -0.11148       -0.11935       -0.00023
C         -0.97554       -1.23308       -0.00038
C         -0.68579        1.17257       -0.00001
C          1.36583       -0.36276       -0.00043
C         -2.35808       -1.00996       -0.00021
C         -2.82076        0.32012        0.00001
C          3.50315        0.64803       -0.00058
H         -0.53977       -2.24456       -0.00058
H         -0.02947        2.05986        0.00008
H         -3.07123       -1.84892       -0.00030
H         -3.90660        0.52989        0.00012
H          3.84064        0.09366       -0.90002
H          3.84086        0.09339        0.89861
H          3.91601        1.67303       -0.00047
