14
METHYLCYCLOPENTADIENE.gamout	Energy:    -233.2466445
C          1.16489        0.34007        0.00191
C          0.71367       -0.95184        0.00069
C         -0.75552       -0.96937       -0.00050
C         -1.22371        0.31135       -0.00000
C         -0.04546        1.25387        0.00160
C          2.58052        0.83332        0.00340
H          1.35005       -1.85024        0.00067
H         -1.36769       -1.88384       -0.00163
H         -2.27502        0.63176       -0.00070
H         -0.05031        1.92957       -0.88659
H         -0.05174        1.92829        0.89074
H          3.30449       -0.00599        0.00340
H          2.79626        1.46494        0.89465
H          2.79770        1.46615       -0.88664
