24
METHYLCYCLOHEPTANE.gamout	Energy:    -314.2522769
C          5.05860        4.25708        1.91269
C          3.89361        3.25648        1.80820
C          3.70569        2.50334        3.15025
C          2.60183        3.99498        1.38054
C          3.08634        1.08968        3.08723
C          1.40021        3.13238        0.95588
C          1.91648        0.87784        2.10060
C          0.92896        2.05252        1.95019
H          6.01146        3.74950        2.17253
H          4.85927        5.01401        2.70347
H          5.21784        4.80628        0.96052
H          4.15602        2.51450        1.01552
H          3.09269        3.15272        3.81686
H          4.68999        2.41447        3.66120
H          2.84366        4.68027        0.53681
H          2.29762        4.65675        2.22634
H          2.75009        0.82331        4.11442
H          3.88290        0.35258        2.84009
H          1.63876        2.62797       -0.00978
H          0.55005        3.81570        0.73454
H          1.36629       -0.03587        2.41530
H          2.31811        0.64164        1.08885
H         -0.04456        1.65568        1.58718
H          0.71364        2.50995        2.94378
