8
METHYLDICHLOROSILANE.gamout	Energy:   -1250.2169956
Cl         0.74801        0.01040        0.57454
Cl         3.49014        1.68748        1.67215
Si         2.81461        0.20178        0.37447
C          3.64072       -1.42399        0.79794
H          3.40328       -1.72116        1.83933
H          3.28711       -2.22306        0.11370
H          4.74226       -1.33306        0.69813
H          3.09002        0.66455       -1.01982
