18
METHYLCYCLOPENTANE.gamout	Energy:    -235.6881121
C          0.67683        1.47934        1.54590
C          2.13718        1.12594        1.83768
C          3.18129        1.95947        1.06284
C          2.59035        1.33391        3.29959
C          4.52319        1.68376        1.78633
C          4.13619        1.26290        3.24265
H          0.42842        1.32545        0.47443
H          0.46570        2.54442        1.78736
H         -0.02292        0.85714        2.14309
H          2.30073        0.05087        1.58231
H          2.90936        3.03640        1.14906
H          3.21009        1.72172       -0.02167
H          2.14194        0.60141        4.00364
H          2.25941        2.34491        3.63013
H          5.19142        2.56922        1.76533
H          5.07544        0.86408        1.28042
H          4.48027        0.22782        3.45200
H          4.60987        1.90902        4.01037
