47
METHYL_MYRISTATE.gamout	Energy:    -739.5844503
C          0.40994       -0.97188       -0.21831
O          1.67410       -0.32594       -0.43088
C          1.73188        0.97924       -0.04564
C          3.10799        1.56095       -0.32367
O          0.78952        1.57080        0.44854
C          3.25392        3.02852        0.09427
C          4.64994        3.60639       -0.19546
C          4.82598        5.08501        0.19854
C          6.23141        5.63795       -0.10381
C          6.44560        7.11984        0.25828
C          7.86420        7.62767       -0.06079
C          8.12069        9.11026        0.27043
C          9.55037        9.57666       -0.06067
C          9.83838       11.05845        0.24807
C         11.27364       11.49885       -0.08970
C         11.57597       12.97803        0.20559
C         13.01238       13.38974       -0.14094
H          0.53190       -2.01119       -0.57465
H          0.13534       -0.96183        0.85665
H         -0.39666       -0.46255       -0.78520
H          3.85588        0.91145        0.18451
H          3.31215        1.42464       -1.40984
H          2.47657        3.62820       -0.42803
H          3.01857        3.12322        1.17702
H          5.41857        2.99224        0.32984
H          4.87552        3.49272       -1.28196
H          4.06364        5.69867       -0.33531
H          4.60416        5.21206        1.28366
H          6.98776        5.01704        0.43116
H          6.44927        5.49647       -1.18862
H          5.69765        7.74267       -0.28560
H          6.23242        7.27723        1.34139
H          8.60467        6.99703        0.48489
H          8.07394        7.45693       -1.14289
H          7.38814        9.74307       -0.28292
H          7.91487        9.29357        1.35092
H         10.27716        8.93842        0.49444
H          9.75457        9.38432       -1.14006
H          9.11697       11.69788       -0.31244
H          9.63636       11.25897        1.32622
H         11.99409       10.85877        0.47164
H         11.47544       11.29538       -1.16754
H         10.85953       13.61848       -0.35842
H         11.37620       13.18747        1.28160
H         13.19730       14.46097        0.07975
H         13.75486       12.79758        0.43631
H         13.23032       13.22986       -1.21900
