14
METHYL_ISOPROPENYL_KETONE.gamout	Energy:    -270.3503246
C         16.93908       19.00732        0.17606
C         18.24979       19.71762       -0.06490
O         16.93818       17.80128        0.41124
C         15.63351       19.79438        0.12572
C         18.30141       21.04585       -0.32734
C         19.47495       18.84252        0.01089
H         15.62096       20.60685        0.88208
H         15.48524       20.26698       -0.86773
H         14.79775       19.09890        0.32596
H         19.26220       21.55814       -0.50253
H         17.39634       21.67044       -0.37872
H         19.41796       18.01892       -0.73116
H         20.40099       19.42328       -0.16746
H         19.54244       18.35051        1.00354
