13
METHYL_ETHYL_KETONE.gamout	Energy:    -232.2900847
C          1.78754        1.41806        2.84502
C          0.83075        2.61050        2.64166
C          2.38520        0.94851        1.51368
C          3.70051        1.58754        1.08510
O          1.81073        0.12337        0.81858
H          2.59439        1.69748        3.55646
H          1.22790        0.56033        3.27244
H          0.01001        2.33975        1.94669
H          0.37644        2.91990        3.60498
H          1.35576        3.49403        2.22113
H          4.00671        1.20156        0.09495
H          3.59990        2.69379        1.04114
H          4.49412        1.37650        1.83393
