53
METHYL_HEXADECANOATE.gamout	Energy:    -818.1264791
C          2.09530        0.22223       -0.71693
O          3.36745        0.00917       -0.10824
C          3.59882       -0.40575        1.17296
C          2.49292       -0.72756        2.20429
O          4.75856       -0.53031        1.51074
C          0.97294       -0.63180        1.98547
C          0.18448       -1.04814        3.24424
C         -1.34299       -0.96945        3.07166
C         -2.14466       -1.39374        4.31580
C         -3.67204       -1.31599        4.13655
C         -4.47744       -1.74929        5.37513
C         -6.00459       -1.67393        5.19280
C         -6.81154       -2.11463        6.42785
C         -8.33895       -2.04250        6.24440
C         -9.14597       -2.48894        7.47739
C        -10.67344       -2.42001        7.29380
C        -11.48026       -2.86981        8.52433
C        -13.00521       -2.80217        8.33784
C        -13.79769       -3.25442        9.57104
H          2.31380        0.54998       -1.75125
H          1.51321        1.02123       -0.21317
H          1.48606       -0.70377       -0.76485
H          2.77739       -0.10069        3.07827
H          2.75176       -1.76068        2.52683
H          0.65613       -1.28158        1.14117
H          0.67852        0.40405        1.70949
H          0.49432       -0.40836        4.10316
H          0.47166       -2.08750        3.52796
H         -1.64469       -1.60619        2.20734
H         -1.62639        0.07126        2.78862
H         -1.84335       -0.76031        5.18246
H         -1.86075       -2.43533        4.59475
H         -3.97004       -1.94730        3.26690
H         -3.95671       -0.27399        3.85927
H         -4.17994       -1.12034        6.24653
H         -4.19244       -2.79190        5.64962
H         -6.29952       -2.30154        4.31943
H         -6.29078       -0.63121        4.91982
H         -6.51693       -1.48865        7.30243
H         -6.52454       -3.15768        6.69874
H         -8.63158       -2.66775        5.36855
H         -8.62732       -0.99954        5.97457
H         -8.85343       -1.86464        8.35391
H         -8.85676       -3.53203        7.74580
H        -10.96497       -3.04411        6.41674
H        -10.96421       -1.37714        7.02617
H        -11.19171       -2.24653        9.40308
H        -11.19186       -3.91337        8.79240
H        -13.29425       -3.42530        7.46046
H        -13.29602       -1.76011        8.07093
H        -13.56315       -4.30654        9.84164
H        -14.89133       -3.19132        9.39717
H        -13.56373       -2.62642       10.45755
