20
METHYL-4-AMINOBENZOATE.gamout	Energy:    -515.1182111
O         -2.47259       -0.84709       -0.00009
O         -2.33976        1.42219       -0.00040
N          3.89447       -0.27361       -0.00018
C         -0.31012        0.12596       -0.00022
C          2.52789       -0.14407       -0.00019
C          0.52750        1.26600       -0.00040
C          0.29454       -1.15360       -0.00002
C          1.91606        1.14155       -0.00039
C          1.68392       -1.29008       -0.00001
C         -1.77991        0.33392       -0.00024
C         -3.89874       -0.71585       -0.00008
H          0.05223        2.25909       -0.00058
H         -0.34504       -2.04846        0.00015
H          2.55067        2.04311       -0.00056
H          2.13781       -2.29494        0.00018
H          4.33554       -1.19025        0.00000
H          4.49732        0.54574       -0.00035
H         -4.30164       -1.74569        0.00015
H         -4.24890       -0.16587       -0.89830
H         -4.24884       -0.16548        0.89792
