69
METHYL_ERUCATE.gamout	Energy:   -1052.6147466
O          8.12230       -8.77245       -1.82118
O          9.24070       -8.48438        0.13160
C          2.00588       -3.82250       -0.80264
C          1.39810       -2.40816       -0.82833
C          3.54565       -3.84160       -0.79652
C         -0.14096       -2.37212       -0.83146
C          4.16435       -5.25180       -0.77188
C         -0.72756       -0.94826       -0.85477
C          5.70530       -5.26482       -0.76685
C         -2.26448       -0.87546       -0.85064
C         -4.83706        6.35595        1.53187
C         -4.41841        5.50285        0.31937
C         -2.80674        0.56650       -0.86838
C          6.32190       -6.67477       -0.74778
C         -4.94863        4.05808        0.34292
C         -4.29660        7.79776        1.50571
C         -4.51252        3.21591       -0.87837
C         -4.70873        8.65269        2.71747
C         -4.31950        0.66838       -0.85496
C          7.86584       -6.66789       -0.74721
C         -5.04771        1.80676       -0.86266
C         -4.16319       10.09002        2.69000
C         -4.57895       10.93129        3.90372
C          8.49495       -8.05008       -0.72716
C          8.67461      -10.09374       -1.89635
H          1.62917       -4.36972        0.09301
H          1.63569       -4.39936       -1.68212
H          1.77327       -1.83278        0.05021
H          1.77739       -1.86293       -1.72429
H          3.91404       -3.26336        0.08286
H          3.92040       -3.29253       -1.69195
H         -0.52240       -2.91377        0.06555
H         -0.52090       -2.94399       -1.71003
H          3.79126       -5.80255        0.12300
H          3.79847       -5.83015       -1.65203
H         -0.33860       -0.37999        0.02266
H         -0.34216       -0.40851       -1.75158
H          6.07380       -4.68794        0.11306
H          6.07851       -4.71536       -1.66259
H         -2.65899       -1.40463        0.04777
H         -2.66780       -1.43244       -1.72798
H         -4.49630        5.85541        2.46835
H         -5.94998        6.38066        1.59618
H         -3.30545        5.47921        0.25528
H         -4.75876        6.00400       -0.61709
H         -2.38226        1.11751        0.00393
H         -2.39950        1.09387       -1.76332
H          5.96227       -7.22794        0.14939
H          5.96844       -7.25344       -1.62875
H         -4.60716        3.54948        1.27322
H         -6.06178        4.06966        0.39982
H         -3.18365        7.76889        1.44017
H         -4.63579        8.30096        0.57001
H         -4.86895        3.72988       -1.80340
H         -3.40317        3.20828       -0.94618
H         -4.36893        8.15150        3.65417
H         -5.82154        8.68512        2.78492
H         -4.87258       -0.28883       -0.83801
H          8.26445       -6.12565        0.13319
H          8.23241       -6.14501       -1.65898
H         -6.14926        1.71097       -0.84955
H         -3.05130       10.05789        2.62357
H         -4.50205       10.59335        1.75530
H         -4.16600       11.95906        3.84718
H         -4.22029       10.47958        4.85377
H         -5.68432       11.01988        3.97846
H          9.78313      -10.05693       -1.92457
H          8.37352      -10.70277       -1.01917
H          8.28111      -10.53975       -2.82800
