20
METHYL_VALERATE.gamout	Energy:    -386.0395111
C          1.12507        0.12905       -0.00043
C         -0.17169       -0.66429       -0.00055
C         -1.42755        0.21141        0.00038
C         -2.73161       -0.60008        0.00003
C         -3.99229        0.27370        0.00079
O          1.22398        1.34261       -0.00182
O          2.20137       -0.70663        0.00109
C          3.48362       -0.05874        0.00063
H         -0.14857       -1.34366       -0.88244
H         -0.14811       -1.34518        0.88014
H         -1.39938        0.88546        0.88472
H         -1.39969        0.88673       -0.88300
H         -2.74621       -1.27370       -0.88747
H         -2.74596       -1.27488        0.88664
H         -4.02808        0.93099        0.89586
H         -4.02834        0.93218       -0.89340
H         -4.91639       -0.34085        0.00052
H          3.60456        0.58028       -0.89826
H          3.60449        0.58174        0.89849
H          4.23600       -0.86855        0.00135
