18
METHYL_MALEATE.gamout	Energy:    -533.9467897
C         16.92850       11.11557        0.27930
C         17.07671       12.59254        0.48631
O         18.21992       13.02388       -0.11455
O         16.33667       13.30718        1.13385
C         15.76583       10.45619        0.07859
C         18.48629       14.43029        0.01776
C         14.43076       11.09653       -0.13279
O         13.45019       10.25197        0.29609
O         14.21645       12.17860       -0.64552
C         12.11030       10.75070        0.15677
H         17.86709       10.53779        0.32855
H         15.77401        9.35419        0.04011
H         19.44126       14.61148       -0.50790
H         17.67200       15.02906       -0.43934
H         18.56916       14.71662        1.08643
H         11.44742        9.95872        0.55019
H         11.97767       11.68840        0.73454
H         11.87466       10.96050       -0.90706
