6
METHYL_MERCAPTAN.gamout	Energy:    -438.5834177
C         -1.93084        0.25942        0.20834
S         -2.70813        1.79241       -0.43345
H         -2.46339       -0.58051       -0.27903
H         -2.05419        0.16217        1.30526
H         -0.85717        0.19582       -0.05797
H         -1.94604        2.66800        0.28158
