16
METHYL_N-PROPYL_KETONE.gamout	Energy:    -271.5730806
C          3.30549        2.78853        2.32008
C          1.89582        2.36695        2.79511
C          0.95577        3.55889        3.01331
C          4.23103        1.58432        2.12301
C          4.14574        0.85983        0.78443
O          4.98788        1.21449        3.00898
H          3.77545        3.43629        3.08942
H          3.22153        3.36869        1.37404
H          1.99937        1.79149        3.74115
H          1.44536        1.66642        2.05663
H          0.80965        4.13859        2.07687
H          1.36159        4.25642        3.77623
H         -0.04403        3.22585        3.36125
H          4.79576       -0.03472        0.79594
H          4.46573        1.54049       -0.03438
H          3.09923        0.56495        0.55541
