16
METHYL_PHENYL_SULFIDE.gamout	Energy:    -669.4634405
S          0.93204        2.27508       -2.01172
C         -0.07646        1.38610       -0.81456
C         -0.63990        2.06867        0.28542
C         -0.26550       -0.00723       -0.94002
C         -1.39832        1.36691        1.23842
C         -1.02472       -0.70518        0.01524
C         -1.59322       -0.01945        1.10363
C         -0.34646        2.76780       -3.23428
H         -0.47139        3.15239        0.38629
H          0.19456       -0.53540       -1.79003
H         -1.83567        1.90516        2.09464
H         -1.16840       -1.79268       -0.08845
H         -2.18520       -0.56823        1.85338
H          0.18617        3.33802       -4.02147
H         -1.11372        3.42099       -2.77215
H         -0.83185        1.88312       -3.69278
