10
METHACRYLONITRILE.gamout	Energy:    -209.9896264
C         49.01353       34.02166        0.00010
C         48.24462       32.71770        0.00000
C         46.89153       32.62806       -0.00001
C         49.03476       31.50965        0.00000
N         49.70891       30.54703       -0.00000
H         48.31906       34.88423        0.00001
H         49.66988       34.09514        0.89266
H         49.67012       34.09514       -0.89228
H         46.37826       31.65477       -0.00008
H         46.27065       33.53816       -0.00006
