7
METHYLAMINE.gamout	Energy:     -95.7812363
C          0.61727        1.08741        0.85735
N          1.90170        1.76431        1.03200
H          0.07324        1.53337       -0.00266
H          0.65037       -0.02043        0.68362
H         -0.01918        1.25543        1.75250
H          2.41249        1.34570        1.82135
H          2.49685        1.60326        0.20789
