12
METHYL_ETHYL_SULFIDE.gamout	Energy:    -517.1482883
S          1.89881        2.50341        2.23560
C          3.63118        2.17812        1.71090
C          3.88012        0.80046        1.09433
C          1.06222        2.62262        0.61663
H          3.95020        2.99385        1.02461
H          4.21634        2.30404        2.64687
H          3.30222        0.65680        0.15766
H          4.95495        0.67367        0.83977
H          3.59311       -0.00873        1.79676
H          1.07921        1.66387        0.05883
H          1.50178        3.42608       -0.01163
H          0.00617        2.88224        0.82966
