8
METHYLTRICHLOROSILANE.gamout	Energy:   -1709.7720579
Cl        -0.78107        1.78066        0.66472
Cl        -1.15185       -1.56707        0.66373
Cl         1.93294       -0.21533        0.66491
Si         0.00022       -0.00009       -0.06237
C         -0.00073        0.00263       -1.92747
H         -1.03533        0.11820       -2.31046
H          0.61559        0.84236       -2.30869
H          0.41793       -0.94943       -2.31305
