18
METHYL_N-BUTYL_ETHER.gamout	Energy:    -272.7556045
C          2.22508        1.96871        1.58563
O          1.06404        1.34783        2.11559
C          0.93129        1.45281        3.51600
C          3.52225        1.17201        1.79020
C          4.73250        1.81382        1.09357
C          6.03788        1.03215        1.28757
H          2.34347        3.00247        2.00384
H          2.03282        2.08369        0.49596
H         -0.04543        1.00609        3.79135
H          0.94027        2.51823        3.85960
H          1.72867        0.90897        4.07959
H          3.36232        0.14009        1.40488
H          3.73887        1.06848        2.87764
H          4.86449        2.85555        1.46599
H          4.51694        1.91362        0.00486
H          5.95032       -0.00343        0.89528
H          6.30781        0.95556        2.36272
H          6.88736        1.51786        0.76393
