8
METHYL_FORMATE.gamout	Energy:    -228.8886138
C         -1.23833       -0.32113       -5.89087
O         -2.21093        0.23672       -5.44964
O         -0.84812       -1.55413       -5.47966
H         -0.55600        0.11206       -6.68103
C          0.32973       -2.09710       -6.09114
H          0.48870       -3.09162       -5.63550
H          0.20280       -2.22064       -7.18853
H          1.22300       -1.46544       -5.89387
