10
METHYL_VINYL_ETHER.gamout	Energy:    -192.9651900
O          1.95601        1.20393        1.18018
C          2.33936        2.41403        0.68594
C          3.60979        2.69059        0.33502
C          0.55546        0.98377        1.26246
H          1.53522        3.17437        0.61295
H          4.40112        1.92925        0.40948
H          3.87019        3.69670       -0.02077
H          0.04599        1.77538        1.86048
H          0.08254        0.93893        0.25410
H          0.40902        0.00964        1.76724
