7
METHYL_ISOCYANATE.gamout	Energy:    -207.8425685
N          1.66271       -0.33486        0.00102
C          0.51050        0.04047        0.00059
O         -0.56800        0.53855        0.00044
C          2.51450       -1.48567       -0.00015
H          3.57594       -1.16568        0.00143
H          2.34932       -2.11795        0.89957
H          2.35105       -2.11476       -0.90242
