41
METHYL_LAURATE.gamout	Energy:    -661.0189363
C          8.80837       -0.27678        0.00002
C          7.50155        0.52690        0.00010
C          6.23568       -0.34609       -0.00003
C          4.92226        0.45395        0.00001
C          3.65199       -0.41488       -0.00006
C          2.33940        0.38811       -0.00004
C          1.06930       -0.48138       -0.00004
C         -0.24451        0.31983       -0.00006
C         -1.51207       -0.55348        0.00001
C         -2.82451        0.24697       -0.00004
C         -4.07498       -0.63836        0.00006
C         -5.37696        0.14475        0.00002
O         -5.48669        1.35735       -0.00001
O         -6.44497       -0.70027        0.00005
C         -7.72994       -0.06038        0.00001
H          9.69544        0.38995        0.00016
H          8.88367       -0.93148        0.89486
H          8.88376       -0.93119       -0.89502
H          7.48038        1.20080        0.88723
H          7.48038        1.20106       -0.88683
H          6.25710       -1.02047       -0.88809
H          6.25700       -1.02066        0.88789
H          4.90494        1.12858        0.88778
H          4.90489        1.12873       -0.88765
H          3.66963       -1.08942       -0.88791
H          3.66950       -1.08951        0.88773
H          2.32193        1.06277        0.88765
H          2.32186        1.06280       -0.88772
H          1.08786       -1.15600       -0.88784
H          1.08775       -1.15599        0.88780
H         -0.26412        0.99416        0.88759
H         -0.26421        0.99410       -0.88775
H         -1.49086       -1.22834       -0.88771
H         -1.49092       -1.22825        0.88780
H         -2.86153        0.92120        0.88365
H         -2.86163        0.92102       -0.88388
H         -4.09562       -1.31863       -0.88116
H         -4.09565       -1.31847        0.88140
H         -8.47840       -0.87372        0.00002
H         -7.85398        0.57906        0.89809
H         -7.85392        0.57899       -0.89812
