15
METHYL_N-PROPYL_SULFIDE.gamout	Energy:    -556.4305698
C         51.98390       10.03108        0.00009
C         50.66017        9.25529       -0.00002
S         50.98119        7.44436        0.00020
C         51.77835       11.55185       -0.00009
C         49.26541        6.82506        0.00010
H         52.57869        9.72848        0.89017
H         52.57891        9.72832       -0.88979
H         50.05696        9.51785       -0.89815
H         50.05671        9.51802        0.89789
H         52.74960       12.08893       -0.00003
H         51.21278       11.88717       -0.89556
H         51.21256       11.88737        0.89518
H         49.32445        5.71864        0.00025
H         48.71158        7.14968        0.90605
H         48.71175        7.14945       -0.90603
