22
METHYL-4-HYDROXYPHENYLACETATE.gamout	Energy:    -574.2417668
O         -3.12430       -0.43116       -0.50912
O          3.37627        0.15986        1.07531
O         -2.99140        1.71175       -1.25285
C         -0.11711        0.08361       -1.26591
C         -1.40235        0.04905       -2.07937
C          0.66525        1.25532       -1.20166
C          0.30132       -1.03714       -0.51479
C          1.83495        1.30443       -0.42732
C          1.46580       -1.00183        0.26333
C          2.24518        0.17375        0.31019
C         -2.58595        0.56464       -1.26486
C         -4.19896       -0.03444        0.35892
H         -1.31745        0.69825       -2.97283
H         -1.61664       -0.98659       -2.41182
H          0.35456        2.14939       -1.76607
H         -0.29955       -1.96067       -0.54101
H          2.43680        2.22919       -0.39539
H          1.79429       -1.87832        0.84218
H         -4.49591       -0.94373        0.91279
H         -5.05571        0.35764       -0.22682
H         -3.86709        0.75597        1.06289
H          3.80328        1.03545        1.01221
