12
METHYL_ETHYL_ETHER.gamout	Energy:    -194.1901887
O          0.96157        1.68395        0.78075
C          0.82920        3.06851        1.01146
C          1.96980        1.05315        1.55817
C          3.39798        1.32990        1.07599
H          1.72066        3.66044        0.68809
H         -0.04369        3.42161        0.42601
H          0.64403        3.29863        2.09167
H          1.86553        1.34358        2.63558
H          1.75681       -0.03534        1.49010
H          4.12776        0.74191        1.67131
H          3.50931        1.04344        0.00974
H          3.67524        2.39990        1.17579
