18
METHYL_ISOBUTYL_ETHER.gamout	Energy:    -272.7593050
C          0.30341       -0.55049       -0.18267
C         -1.03890       -0.00962        0.32472
C         -1.28822        1.42553       -0.16524
C         -2.18141       -0.96002       -0.06541
O          1.35647        0.27687        0.27775
C          2.62901       -0.16779       -0.12973
H          0.45062       -1.60409        0.17225
H          0.29896       -0.59123       -1.30548
H         -0.96450        0.01339        1.43674
H         -0.44725        2.08861        0.11844
H         -1.38854        1.45551       -1.27276
H         -2.22193        1.84094        0.26830
H         -2.01224       -1.98999        0.31492
H         -3.15084       -0.60767        0.34370
H         -2.29208       -1.02436       -1.17022
H          2.86459       -1.18940        0.26232
H          2.73028       -0.20251       -1.24391
H          3.38107        0.54255        0.26867
