19
METHYL_N-BUTYL_KETONE.gamout	Energy:    -310.8580015
O         -3.63503        1.60778        0.61900
C         -5.60842       -0.40381        0.33368
C         -6.51711       -1.62553        0.13091
C         -4.12616       -0.69089        0.08676
C         -8.00130       -1.32642        0.38015
C         -3.20719        0.51219        0.28576
C         -1.71361        0.28963        0.04898
H         -5.73026       -0.00385        1.36435
H         -5.92889        0.42482       -0.33576
H         -6.18577       -2.44842        0.80549
H         -6.38393       -2.01739       -0.90370
H         -3.95346       -1.07955       -0.94570
H         -3.75342       -1.50958        0.74874
H         -8.63207       -2.22669        0.22837
H         -8.37401       -0.53549       -0.30529
H         -8.17058       -0.96820        1.41798
H         -1.36586        0.99214       -0.73685
H         -1.15953        0.55264        0.97407
H         -1.45783       -0.74638       -0.24807
