65
METHYL_EICOSANOATE.gamout	Energy:    -975.2797768
O         -9.69191        6.62816       -0.82568
O         -9.58221        7.93982        1.02235
C          0.74080       -1.27099        0.13454
C          0.18964        0.16546        0.07586
C          2.27631       -1.33406        0.04000
C         -1.34153        0.29628        0.17101
C          2.87858       -2.74974        0.09656
C         -1.82236        1.75814        0.10681
C          4.41598       -2.77090        0.00505
C         -3.34630        1.96445        0.19852
C          5.04756       -4.17420        0.06121
C         -3.76359        3.44577        0.12598
C          6.58553       -4.17249       -0.02750
C         -5.28079        3.70234        0.21184
C          7.23217       -5.56899        0.02858
C         -5.66452        5.19288        0.12965
C          8.76908       -5.55768       -0.05847
C         -7.17829        5.46329        0.20759
C          9.41698       -6.95086       -0.00254
C         -7.53635        6.96265        0.11249
C         10.94837       -6.92316       -0.09015
C         -9.02576        7.25109        0.18714
C        -11.11078        6.83759       -0.84150
H          0.29290       -1.87641       -0.68771
H          0.40847       -1.75905        1.08066
H          0.53445        0.64576       -0.87022
H          0.65353        0.76365        0.89501
H          2.60150       -0.83747       -0.90447
H          2.71310       -0.71913        0.86159
H         -1.81822       -0.28902       -0.64955
H         -1.69742       -0.17176        1.11859
H          2.45164       -3.36795       -0.72744
H          2.56013       -3.25041        1.04085
H         -1.45294        2.21645       -0.84072
H         -1.32909        2.33487        0.92415
H          4.73119       -2.26564       -0.93805
H          4.83623       -2.14744        0.82880
H         -3.84882        1.39911       -0.62070
H         -3.72730        1.51825        1.14664
H          4.63298       -4.79905       -0.76415
H          4.73567       -4.68148        1.00412
H         -3.37477        3.88409       -0.82287
H         -3.25136        4.00703        0.94222
H          6.89584       -3.66272       -0.96968
H          6.99667       -3.54488        0.79764
H         -5.79670        3.14727       -0.60595
H         -5.67730        3.27176        1.16059
H          6.82404       -6.19716       -0.79755
H          6.92355       -6.07971        0.97071
H         -5.26793        5.61937       -0.82111
H         -5.14668        5.75027        0.94459
H          9.07989       -5.04771       -1.00049
H          9.17872       -4.93018        0.76763
H         -7.70088        4.92008       -0.60956
H         -7.58344        5.05166        1.15953
H          9.00959       -7.57834       -0.82842
H          9.10839       -7.46175        0.93847
H         -7.16185        7.36800       -0.85405
H         -7.05826        7.54338        0.92616
H         11.37608       -7.94543       -0.04712
H         11.29343       -6.45751       -1.03860
H         11.39359       -6.33957        0.74432
H        -11.35119        7.91566       -0.94712
H        -11.49583        6.27142       -1.70921
H        -11.57786        6.47232        0.09626
