17
METHYL_N-BUTYRATE.gamout	Energy:    -346.7567101
C          0.57334        0.13561       -0.00023
C         -0.76810       -0.58078       -0.00057
C         -1.96601        0.37513        0.00083
C         -3.31596       -0.35121        0.00021
O          0.73513        1.34257       -0.00104
O          1.60224       -0.75621        0.00076
C          2.91711       -0.17744        0.00016
H         -0.78786       -1.25950       -0.88325
H         -0.78731       -1.26176        0.88036
H         -1.88700        1.04457        0.88424
H         -1.88724        1.04654       -0.88109
H         -3.43193       -0.99876       -0.89532
H         -3.43173       -1.00074        0.89432
H         -4.15959        0.36956        0.00110
H          3.07123        0.45487       -0.89856
H          3.07140        0.45644        0.89774
H          3.62610       -1.02529        0.00084
