13
METHYLAL.gamout	Energy:    -269.3376825
C          2.60519        1.47894        3.50699
O          1.72310        2.57000        3.38363
C          2.23277        3.59110        2.58136
O          1.26033        4.59183        2.55244
C          1.64452        5.70042        1.77230
H          3.58032        1.76760        3.97487
H          2.83277        0.99955        2.52137
H          2.11419        0.72802        4.15617
H          3.20706        3.98776        3.00096
H          2.45484        3.21339        1.53710
H          1.82704        5.42667        0.70248
H          2.57267        6.19125        2.15981
H          0.81696        6.43536        1.80967
