31
METHYL_SINAPATE.gamout	Energy:    -841.1620495
C          1.45827       -0.73277        0.88897
C          0.83828        0.12372        1.93782
O          1.11186       -1.89964        0.78543
O          2.41675       -0.29631        0.00666
C          0.99952        1.42811        2.30687
C          0.28785        2.11773        3.38833
C          2.95452        1.01655       -0.04826
C          0.58615        3.48582        3.63121
C         -0.67725        1.48446        4.19619
C         -0.08096        4.16233        4.65598
C         -1.05436        3.52229        5.47006
O          0.09743        5.48110        5.00930
C         -1.35483        2.15461        5.23150
O         -1.66085        4.25117        6.45052
O         -2.25285        1.39446        5.91448
C         -3.02963        1.91225        6.99202
C          1.03995        6.25800        4.29074
H          0.10936       -0.49162        2.48979
H          1.71982        2.06374        1.77387
H          3.69535        1.00383       -0.87132
H          3.48253        1.29937        0.88875
H          2.18282        1.78057       -0.28878
H          1.33550        3.99761        3.01247
H         -0.94157        0.42854        4.04754
H         -1.26187        5.14783        6.38310
H         -3.65247        1.06450        7.33670
H         -3.69001        2.74294        6.66775
H         -2.39602        2.26605        7.83118
H          1.01702        7.27115        4.73434
H          0.77556        6.32913        3.21136
H          2.06926        5.84388        4.38380
