21
MMPYR+1.gamout	Energy:    -291.3579163
N          0.41787       -0.55921       -0.08792
C         -0.43242        0.11439       -1.19833
C          1.49371        0.49321        0.29249
C          1.43792        1.55261       -0.80697
H          2.46567       -0.02180        0.41130
H          1.19888        0.91493        1.27299
C         -0.05845        1.59511       -1.15635
H         -1.49881       -0.11736       -1.01623
H         -0.13254       -0.34947       -2.15817
H         -0.63534        2.13339       -0.37467
H         -0.27277        2.09149       -2.12304
H          2.04266        1.24867       -1.68757
H          1.83813        2.52264       -0.45249
C         -0.43440       -0.89454        1.10916
H         -0.97299        0.01305        1.43827
H          0.21799       -1.25904        1.92478
H         -1.15933       -1.68281        0.83169
C          1.06222       -1.81755       -0.61011
H          1.74730       -1.55970       -1.43870
H          0.27313       -2.50093       -0.97665
H          1.62638       -2.30368        0.20793
