8
MONOFLUOROACETIC_ACID.gamout	Energy:    -328.0666392
C         34.97954       29.99937        0.00010
C         33.60088       29.34276       -0.00028
O         33.73958       27.98901       -0.00004
O         32.53750       29.92125       -0.00030
F         34.86756       31.36457        0.00024
H         35.54027       29.65431        0.89929
H         35.54091       29.65454       -0.89876
H         32.82632       27.62433       -0.00010
