11
MONOETHANOLAMINE.gamout	Energy:    -210.2223496
C         -0.95901        0.03806        1.41005
C         -0.84585       -1.41592        1.86842
N          0.55399       -1.84969        1.85211
H         -1.42404       -2.04168        1.15421
H         -1.36701       -1.50734        2.85653
H          1.05715       -1.42308        2.64356
H          0.60371       -2.86291        2.02016
O         -2.33164        0.40206        1.43437
H         -0.50514        0.12263        0.39183
H         -0.34344        0.68413        2.09042
H         -2.39935        1.32277        1.12451
