8
MONOBROMOACETIC_ACID.gamout	Energy:   -2802.4296132
O          1.96263        1.74272        0.01000
C          1.32191        0.56480       -0.05893
O          0.11379        0.46601       -0.05291
C          2.16198       -0.71862       -0.15126
Br         4.12567       -0.45901       -0.15072
H          2.93651        1.57113       -0.01189
H          1.92239       -1.37094        0.70910
H          1.90547       -1.25076       -1.08622
