32
MORIN.gamout	Energy:   -1103.4172311
O         -0.22728       -0.82596        0.10568
O          0.68200        2.63799       -0.72603
O         -4.27934        1.71259       -0.24185
O         -2.02074        2.78217       -0.67097
O          2.71950        1.37663       -1.81577
O         -4.36460       -2.94793        0.92974
O          5.99692       -1.24550        0.59797
C         -2.22869        0.49364       -0.07456
C          0.55980        0.26677       -0.18923
C         -1.58420       -0.73602        0.18383
C          1.98771       -0.08472       -0.05440
C         -0.00696        1.50835       -0.46726
C         -1.47007        1.67304       -0.42778
C         -3.66135        0.55807        0.00568
C         -2.29231       -1.89463        0.51771
C          3.04189        0.47544       -0.82142
C         -3.69682       -1.81000        0.59806
C         -4.38000       -0.59973        0.34580
C          2.36420       -1.07545        0.89125
C          4.38289        0.11698       -0.60987
C          3.68752       -1.46005        1.09952
C          4.71812       -0.85391        0.35170
H         -1.77438       -2.84115        0.71065
H         -5.47705       -0.53835        0.40807
H          1.56743       -1.54747        1.48325
H          5.17077        0.58784       -1.22256
H          3.94987       -2.22042        1.84694
H          1.54571        2.39210       -1.14099
H         -3.51174        2.37134       -0.46242
H          3.53014        1.66837       -2.27541
H         -5.32004       -2.74812        0.94810
H          6.60619       -0.75016        0.01817
