15
MPY+1.gamout	Energy:    -287.7556893
N          0.04812        1.17804        0.64425
C          0.54477        2.27595        1.28065
C          0.11038        3.55732        0.93689
C         -0.84927        3.71032       -0.07756
C         -0.88481        1.30763       -0.34384
C         -1.35035        2.56520       -0.72346
H          1.29328        2.09245        2.06522
H          0.53027        4.42371        1.46886
H         -1.20394        4.71265       -0.36376
H         -2.10229        2.63839       -1.52288
H         -1.23705        0.37497       -0.80916
C          0.50701       -0.18098        1.02519
H          1.30947       -0.09742        1.77839
H          0.89509       -0.70275        0.12940
H         -0.34297       -0.74946        1.45102
