33
MYRICETIN.gamout	Energy:   -1178.5801011
O         -0.50357       -0.77439       -0.17407
O          0.37940        2.66875        0.74607
O         -4.59649        1.66680        0.40202
O         -2.34570        2.78170        0.77794
O         -4.62403       -2.94605       -0.94313
O          4.03174       -2.04153       -1.84231
O          4.88353        1.10796        1.67661
O          5.80651       -0.72528       -0.24944
C         -2.52568        0.49826        0.13416
C          0.25338        0.31524        0.17219
C         -1.86625       -0.70735       -0.20074
C          1.69775        0.04020        0.10820
C         -0.32358        1.53994        0.47615
C         -1.78389        1.68975        0.48949
C         -3.96135        0.53561        0.09634
C         -2.56162       -1.86466       -0.56023
C          2.60855        0.71106        0.96524
C          2.18274       -0.90870       -0.82008
C         -3.96975       -1.80788       -0.58946
C         -4.66729       -0.62328       -0.26608
C          3.55823       -1.15938       -0.92710
C          3.98214        0.45083        0.86284
C          4.46185       -0.46372       -0.09137
H         -2.03141       -2.79071       -0.81120
H          2.26610        1.35935        1.78364
H          1.49382       -1.44260       -1.48642
H         -5.76654       -0.57862       -0.29081
H          1.32610        2.49414        0.55420
H         -3.84045        2.33863        0.61512
H         -5.58389       -2.76880       -0.92027
H          5.01038       -2.01912       -1.77356
H          5.48825        0.43879        2.05770
H          6.29525        0.09595       -0.03122
