15
N,N-DIMETHYLACETAMIDE.gamout	Energy:    -287.6171388
C         -1.90384       -0.30680       -0.66049
C         -0.52691        0.34946       -0.55613
N          0.49016       -0.38791        0.03500
O         -0.33660        1.48844       -0.98694
C          1.79940        0.22625        0.18692
C          0.33565       -1.70542        0.61918
H         -1.88198       -1.24988       -1.24583
H         -2.56336        0.41423       -1.17526
H         -2.33543       -0.53882        0.33593
H          2.09638        0.27344        1.25922
H          1.74179        1.24934       -0.22737
H          2.57899       -0.35064       -0.36053
H          0.38273       -1.67550        1.73425
H          1.14873       -2.38304        0.27364
H         -0.62649       -2.16240        0.33027
