21
N,N-DIETHYLACETAMIDE.gamout	Energy:    -366.1855135
C          0.39998       -1.47268        0.64624
C          1.04655       -2.21464       -0.53402
N          0.10866       -0.05770        0.41057
C         -1.12494        0.42449       -0.00095
C         -2.25995       -0.58494       -0.17828
O         -1.30508        1.62847       -0.20134
C          1.17451        0.93433        0.61637
C          1.92157        1.35459       -0.65701
H         -0.53795       -1.98658        0.93846
H          1.06737       -1.53706        1.53455
H          0.40679       -2.16732       -1.43951
H          2.03515       -1.78646       -0.79723
H          1.20093       -3.28451       -0.27970
H         -2.55306       -1.04728        0.78846
H         -3.12805       -0.02957       -0.57680
H         -2.00322       -1.40578       -0.87891
H          0.69948        1.83302        1.06133
H          1.87988        0.51368        1.36516
H          2.42917        0.50053       -1.15060
H          1.21717        1.81241       -1.37945
H          2.69635        2.11184       -0.41218
