26
N,N-BIS(2-HYDROXYETHYL)ETHYLENEDIAMINE.gamout	Energy:    -497.8011412
O         -2.91263       -1.98132       -1.23146
O         -0.20272        3.55906        0.35900
N          0.17573       -0.07074       -0.52650
N          3.48655       -1.87433       -0.29486
C          1.33367       -0.87095       -0.93030
C         -1.06740       -0.47799       -1.18367
C          0.40902        1.37219       -0.58091
C          2.38282       -1.03560        0.17913
C         -1.73399       -1.67537       -0.50077
C         -0.37678        2.15524        0.48463
H          1.82555       -0.44630       -1.84939
H          0.99388       -1.88778       -1.21593
H         -0.91951       -0.71967       -2.26895
H         -1.78915        0.36475       -1.15542
H          0.17666        1.81232       -1.58760
H          1.49274        1.55801       -0.40651
H          1.89464       -1.54010        1.04109
H          2.69111       -0.02235        0.55245
H         -1.94275       -1.40171        0.56362
H         -1.02243       -2.53931       -0.47538
H         -0.09770        1.76893        1.49652
H         -1.46658        1.97351        0.36690
H          4.15257       -2.04732        0.46922
H          4.02069       -1.37117       -1.01787
H         -3.33453       -2.74919       -0.80627
H          0.74276        3.74939        0.50881
