23
N,N-DIMETHYL-P-TOLUIDINE.gamout	Energy:    -405.2317533
C          6.62802        4.18739       -1.39271
N          7.17390        2.95373       -0.85938
C          8.60874        2.74627       -0.91668
C          6.32738        1.87149       -0.61874
C          6.83721        0.59053       -0.26095
C          4.91236        1.99282       -0.72714
C          5.97519       -0.48259        0.00448
C          4.07101        0.90427       -0.45787
C          4.57188       -0.35901       -0.07869
C          3.65090       -1.51587        0.23949
H          7.42209        4.95843       -1.41822
H          6.21757        4.08284       -2.42800
H          5.81047        4.57921       -0.74891
H          9.11612        3.72501       -1.01546
H          8.98767        2.27280        0.01555
H          8.93090        2.10315       -1.77316
H          7.92105        0.42189       -0.19692
H          4.45756        2.94379       -1.03668
H          6.41656       -1.45656        0.27686
H          2.98108        1.04499       -0.55687
H          4.10987       -2.49112       -0.02537
H          3.40040       -1.56029        1.32347
H          2.69092       -1.43644       -0.31135
