24
N-(2-AMINOETHYL)PIPERAZINE.gamout	Energy:    -401.5981399
N          0.06818        0.11809       -0.09275
N         -2.75845       -0.22454        0.16028
N          3.83297       -0.10012       -0.01375
C         -0.50323       -1.11639        0.45230
C         -0.81621        1.25410        0.17456
C         -1.89859       -1.36962       -0.12858
C         -2.20917        1.00295       -0.41223
C          1.44414        0.36029        0.32945
C          2.47837       -0.52672       -0.37927
H         -0.58020       -1.07031        1.57474
H          0.15835       -1.97089        0.19908
H         -0.37574        2.16469       -0.28521
H         -0.92460        1.44944        1.27759
H         -1.78393       -1.57153       -1.22854
H         -2.33050       -2.28085        0.33784
H         -2.87466        1.85605       -0.15950
H         -2.11359        0.96497       -1.53163
H          1.70541        1.41440        0.09647
H          1.56219        0.25277        1.44609
H         -3.71309       -0.39032       -0.17908
H          2.26033       -1.60720       -0.17193
H          2.34602       -0.39236       -1.47488
H          4.01082       -0.31875        0.97756
H          4.52614       -0.64716       -0.54105
