30
N-ACETYL-D-GLUCOSAMINE.gamout	Energy:    -819.3591997
C          2.14617        1.09577       -0.10206
C          3.51497        1.80876       -0.37433
C          2.26139        0.23788        1.16296
N          1.00777        1.98444       -0.07985
C          4.02721        2.63433        0.83896
O          4.49276        0.86273       -0.77062
C          4.90963        3.81901        0.40793
O          2.89327        3.07368        1.59223
C          6.23936        3.40566       -0.25537
O          4.19431        4.66243       -0.47053
O          6.85897        4.56369       -0.82415
O          3.26636       -0.40143        1.44135
C         -0.16824        1.91652       -0.80644
O         -1.03690        2.77530       -0.67621
C         -0.33013        0.73268       -1.76033
H          2.03923        0.38381       -0.94920
H          3.35111        2.50393       -1.22367
H          1.35239        0.23751        1.83361
H          1.10174        2.79891        0.53808
H          4.65831        1.95422        1.46450
H          4.49952        0.19034       -0.04841
H          5.17119        4.37485        1.35764
H          3.18740        3.74190        2.24011
H          6.04460        2.70882       -1.09427
H          6.90451        2.87998        0.46844
H          4.90060        5.11407       -0.98811
H          7.20035        5.10901       -0.08827
H          0.45569        0.71762       -2.54555
H         -1.31578        0.83454       -2.24885
H         -0.29214       -0.24098       -1.22788
