60
N-BENZYL-N,N-DIMETHYLDODECANAMINIUM+1.gamout	Energy:    -876.9910480
N          0.90009        3.86948       -2.03619
C          0.11429        2.54819       -2.06704
C          0.28906        1.64160       -0.85008
C          0.64256        4.58935       -3.39997
C         -0.50813        0.32629       -0.97161
C          0.42638        4.73571       -0.89916
C          2.37223        3.60332       -1.87539
C         -0.26223       -0.57668        0.24966
C         -0.98725       -1.93153        0.23098
C         -0.66093       -2.77012        1.47824
C          1.24951        5.96160       -3.53130
C         -1.35168       -4.14091        1.54503
C         -0.98520       -4.93600        2.80812
C         -1.67765       -6.30343        2.91849
C          2.57988        6.12909       -3.98841
C          0.48487        7.11250       -3.22538
C         -1.30294       -7.08836        4.18470
C         -2.00033       -8.45414        4.30147
C          3.14567        7.41023       -4.08307
C          1.04620        8.39460       -3.33797
C          2.38221        8.54379       -3.75211
C         -1.62035       -9.23632        5.56473
H          0.43622        2.02891       -2.99356
H         -0.94836        2.83754       -2.20055
H          1.36020        1.37964       -0.71445
H         -0.03247        2.16320        0.07685
H          1.03501        3.88944       -4.16409
H         -0.46054        4.62563       -3.49549
H         -0.21232       -0.20625       -1.90367
H         -1.59478        0.54720       -1.07155
H         -0.66538        4.88580       -0.98902
H          0.94417        5.70993       -0.95579
H          0.66022        4.23908        0.05834
H          2.70735        2.92422       -2.68226
H          2.55407        3.13611       -0.89208
H          2.91659        4.56326       -1.93976
H         -0.55366       -0.02263        1.17144
H          0.83359       -0.75725        0.34563
H         -0.70344       -2.49571       -0.68673
H         -2.08745       -1.76956        0.16245
H          0.44311       -2.91549        1.53605
H         -0.92979       -2.18363        2.38746
H         -1.08631       -4.73664        0.64144
H         -2.45674       -4.00259        1.50097
H          0.12002       -5.07961        2.84226
H         -1.23303       -4.32593        3.70790
H         -2.78255       -6.15869        2.88758
H         -1.43161       -6.91530        2.01987
H          3.17499        5.25311       -4.29613
H         -0.56669        7.00626       -2.91174
H         -1.54400       -6.47407        5.08365
H         -0.19804       -7.23649        4.21349
H         -3.10357       -8.30206        4.27307
H         -1.76063       -9.06303        3.39991
H          4.18372        7.52507       -4.43129
H          0.43635        9.28236       -3.11148
H          2.82399        9.54874       -3.83414
H         -2.13579      -10.21836        5.60796
H         -0.52747       -9.43269        5.60739
H         -1.89129       -8.67787        6.48632
