24
N-BUTYLBENZENE.gamout	Energy:    -389.2103767
C          2.54526        3.41403        5.47513
C          2.14940        3.02966        4.03374
C          3.30772        3.02110        3.05230
C          1.36675        3.41239        6.46032
C          4.38928        2.12734        3.22706
C          3.34379        3.89606        1.94475
C          1.76552        3.78763        7.89264
C          5.46970        2.11003        2.33081
C          4.42263        3.88129        1.04196
C          5.49075        2.98877        1.23242
H          3.32858        2.71184        5.84074
H          3.02796        4.41768        5.46500
H          1.67581        2.02068        4.05059
H          1.36212        3.72628        3.67104
H          0.58130        4.11261        6.09413
H          0.89023        2.40509        6.45631
H          4.38168        1.42805        4.07987
H          2.50975        4.60021        1.78668
H          0.89310        3.77440        8.57838
H          2.52124        3.08235        8.30052
H          2.20921        4.80553        7.93667
H          6.29979        1.40256        2.48841
H          4.42753        4.57252        0.18366
H          6.33696        2.97405        0.52721
