21
N-BUTYL_ACRYLATE.gamout	Energy:    -424.0954091
O          4.37364        1.08880        1.77274
C          3.16475        1.48997        1.28913
C          2.06164        0.75328        1.97400
O          3.03047        2.33427        0.41740
C          5.53068        1.72912        1.19079
C          0.77424        0.98659        1.65505
C          6.77700        1.14621        1.84438
C          8.07580        1.75705        1.29473
C          9.33870        1.17733        1.94281
H          2.35585        0.02015        2.74226
H          5.52058        1.56368        0.09068
H          5.45293        2.82804        1.34602
H          0.52963        1.73061        0.87870
H         -0.05099        0.45205        2.15044
H          6.78054        0.04412        1.69018
H          6.71686        1.30678        2.94378
H          8.05493        2.86086        1.44175
H          8.11732        1.60070        0.19290
H          9.34891        1.35082        3.04005
H          9.40887        0.08031        1.78233
H         10.25868        1.63514        1.52453
