26
N-BUTYL_N-BUTYRATE.gamout	Energy:    -464.6098005
C          0.50961        1.83533        0.76131
C          1.41226        0.83146        1.49064
C          2.62119        1.47775        2.18149
C          3.66117        2.01973        1.20955
O          4.54308        2.83554        1.84688
O          3.73322        1.75460        0.02202
C          5.60376        3.38817        1.03188
C          8.59779        5.69449        2.07938
C          7.66928        4.87719        1.17335
C          6.51579        4.20667        1.93666
H          0.10429        2.59812        1.46053
H          1.06899        2.36392       -0.03730
H         -0.35396        1.32766        0.28393
H          1.78375        0.07159        0.77060
H          0.82190        0.28300        2.25625
H          3.14954        0.73943        2.82652
H          2.31864        2.29996        2.86577
H          6.14807        2.55837        0.53030
H          5.15200        4.00773        0.22543
H          9.41263        6.17711        1.50099
H          8.04253        6.49936        2.60674
H          9.07245        5.05767        2.85636
H          7.25091        5.53671        0.37939
H          8.26071        4.09952        0.63882
H          6.92046        3.54173        2.73197
H          5.90648        4.97826        2.45791
