21
N-BUTYL_ETHYL_ETHER.gamout	Energy:    -312.0457608
C          1.83609        0.52366       -0.00005
C          3.17464       -0.21116        0.00004
O          2.93542       -1.60550        0.00004
C          1.97485        2.05355       -0.00001
C          4.11820       -2.38519        0.00002
C          0.62455        2.78176       -0.00014
C          3.73876       -3.85924       -0.00007
H          1.25577        0.19253       -0.89003
H          1.25565        0.19251        0.88984
H          3.77976        0.08564        0.89778
H          3.77988        0.08561       -0.89763
H          2.56755        2.37127        0.88809
H          2.56774        2.37131       -0.88798
H          4.74476       -2.14022       -0.89762
H          4.74474       -2.14032        0.89770
H          0.75209        3.88416       -0.00014
H          0.02228        2.51390       -0.89445
H          0.02214        2.51393        0.89408
H          4.64558       -4.49785       -0.00013
H          3.13513       -4.10751        0.89694
H          3.13513       -4.10740       -0.89712
