26
N-BUTYLANILINE.gamout	Energy:    -444.5236101
C          6.52873        4.19726       -1.35175
N          7.03126        2.91376       -0.89905
C          6.22412        1.81582       -0.64196
C          7.67107        5.20373       -1.53240
C          6.81618        0.54802       -0.38202
C          4.80677        1.90969       -0.60531
C          7.19929        6.59906       -1.96648
C          6.02496       -0.56854       -0.08947
C          4.02723        0.78022       -0.30461
C          8.34932        7.59236       -2.17513
C          4.62048       -0.46615       -0.04446
H          5.95536        4.10622       -2.31100
H          5.80795        4.59383       -0.59948
H          7.99575        2.69786       -1.15803
H          8.24028        5.27635       -0.57801
H          8.38697        4.80705       -2.29057
H          7.91519        0.45406       -0.40662
H          4.31012        2.86948       -0.80937
H          6.60927        6.51176       -2.90707
H          6.49339        7.00087       -1.20476
H          6.51407       -1.53669        0.10647
H          2.92985        0.88199       -0.28157
H          7.97509        8.58897       -2.48789
H          8.93792        7.73440       -1.24351
H          9.05207        7.23817       -2.95931
H          4.00114       -1.34635        0.18621
