13
N-BUTYRALDEHYDE.gamout	Energy:    -232.2797132
C          1.48797        2.87706        2.13370
C          0.96572        2.00366        3.28116
C          1.72255        2.10044        0.82283
C          2.85573        1.09539        0.90337
O          2.82692       -0.03728        0.46456
H          2.43868        3.37320        2.43631
H          0.77249        3.70303        1.93154
H          1.68012        1.19384        3.54335
H          0.00408        1.51698        3.01221
H          0.79286        2.60270        4.19908
H          2.01402        2.81961        0.01973
H          0.80963        1.57411        0.47154
H          3.79202        1.49772        1.41236
