20
N-BUTYL_ACETATE.gamout	Energy:    -386.0432918
O          4.05121       -0.15732       -1.72839
C          3.37599        0.13347       -2.97310
C          4.76289        0.86983       -1.18706
C          2.63517       -1.11913       -3.42283
C          5.43367        0.44016        0.10180
O          4.83324        1.97483       -1.69278
C          1.88145       -0.91373       -4.74692
C          1.12646       -2.16273       -5.21781
H          4.12796        0.46274       -3.72417
H          2.68347        0.99109       -2.82348
H          3.36171       -1.95544       -3.52643
H          1.92340       -1.42436       -2.62323
H          6.10754       -0.42080       -0.08380
H          6.00783        1.28697        0.51765
H          4.67308        0.10219        0.83499
H          1.16885       -0.06526       -4.63637
H          2.60392       -0.59597       -5.53315
H          0.36717       -2.48188       -4.47202
H          0.59665       -1.98067       -6.17546
H          1.81658       -3.01906       -5.37318
