15
N-BUTANOL.gamout	Energy:    -233.4837989
C          1.27850        4.19590        0.92771
C          0.26945        4.60657       -0.15402
C         -0.23011        6.04208       -0.01085
C          1.77841        2.75360        0.77817
O         -1.15237        6.30597       -1.05979
H          2.14646        4.89398        0.90565
H          0.81417        4.32554        1.93232
H         -0.61198        3.92703       -0.13517
H          0.72175        4.49588       -1.16529
H         -0.70008        6.17070        0.99904
H          0.64545        6.74165       -0.04030
H          0.93987        2.02698        0.83307
H          2.50468        2.48746        1.57404
H          2.28243        2.60063       -0.20016
H         -1.46345        7.22326       -0.95621
