41
N-BUTYL_NONANOATE.gamout	Energy:    -661.0241379
C         87.12283        0.25869       -0.62237
C         88.46721        0.94475       -0.33008
C         85.91942        0.94637        0.04615
C         89.66685        0.26574       -0.99873
C         90.98859        0.95720       -0.70511
O         92.01521        0.31253       -1.32725
C         93.33893        0.86021       -1.13079
O         91.12815        1.95305       -0.01739
C         82.01119        0.30775        0.13442
C         83.36621        0.97209        0.42424
C         80.82395        1.01360        0.80129
C         84.56494        0.27650       -0.24229
C         96.21723        0.10036        1.42503
C         95.48662        0.72407        0.23028
C         94.04265        0.22541        0.06881
H         86.95821        0.22183       -1.72480
H         87.16744       -0.80610       -0.29332
H         88.64513        0.98703        0.76695
H         88.43054        2.00702       -0.65767
H         86.08498        0.98389        1.14803
H         85.87915        2.01080       -0.28358
H         89.55176        0.22452       -2.10512
H         89.76581       -0.79750       -0.68453
H         93.88318        0.64263       -2.07313
H         93.25650        1.95931       -0.99944
H         81.84955        0.27054       -0.96744
H         82.04459       -0.75566        0.46597
H         83.52830        1.00956        1.52697
H         83.32948        2.03679        0.09381
H         79.86503        0.50640        0.56929
H         80.93107        1.03408        1.90727
H         80.73403        2.06776        0.46083
H         84.40025        0.24034       -1.34466
H         84.60083       -0.78831        0.08767
H         97.25394        0.48515        1.50948
H         95.69856        0.32506        2.38131
H         96.27832       -1.00544        1.33420
H         96.05469        0.51166       -0.70425
H         95.48302        1.83260        0.33603
H         93.45963        0.45479        0.98775
H         94.03155       -0.88117       -0.05037
