24
N-BUTYL_METHACRYLATE.gamout	Energy:    -463.3836728
C          0.24220        1.42178       -0.96300
C          1.07279        0.77995       -0.10925
C          1.12665       -0.72223       -0.05949
C          1.99769        1.47412        0.85692
O          1.82884       -1.34263        0.72637
O          0.32072       -1.31540       -0.98331
C          0.27218       -2.76013       -0.97931
C         -0.84469       -3.28211       -0.07444
C         -0.98075       -4.81258       -0.12601
C         -2.10655       -5.34926        0.76644
H          0.20006        2.52286       -0.99402
H         -0.41105        0.85672       -1.64330
H          1.90312        2.57509        0.78394
H          1.78326        1.16407        1.90108
H          3.05435        1.19200        0.66525
H          0.09311       -3.04257       -2.03735
H          1.25762       -3.15349       -0.65406
H         -0.63740       -2.95812        0.96888
H         -1.80470       -2.80589       -0.37467
H         -1.15865       -5.13100       -1.17871
H         -0.01453       -5.27818        0.17286
H         -2.17533       -6.45565        0.71632
H         -1.94484       -5.07316        1.83028
H         -3.09414       -4.93889        0.46562
