16
N-BUTYLAMINE.gamout	Energy:    -213.6339459
C          2.32817        1.66175        1.57611
C          3.67701        1.22387        2.16611
C          4.89791        1.75911        1.39083
C          1.11165        1.12705        2.34037
N          6.21821        1.37745        1.89615
H          2.29166        2.77457        1.54448
H          2.27638        1.33026        0.51380
H          3.74722        1.55885        3.22812
H          3.72839        0.10966        2.19464
H          4.82578        1.42867        0.32900
H          4.84841        2.87170        1.35535
H          1.11182        1.47122        3.39711
H          0.15994        1.46528        1.88123
H          1.09734        0.01600        2.35615
H          6.31221        1.68337        2.87565
H          6.29039        0.35009        1.92824
