17
N-BUTYL_FORMATE.gamout	Energy:    -346.7424739
C          2.39444        0.60319        0.09181
C          3.88856        0.31102        0.13510
O          4.06942       -1.11893        0.24972
C          2.08231        2.10344       -0.02603
C          5.34071       -1.58246        0.31147
C          0.57926        2.40407       -0.06839
O          5.60573       -2.75448        0.41114
H          1.94867        0.04953       -0.76381
H          1.92597        0.18418        1.00959
H          4.36490        0.81849        1.00541
H          4.39088        0.68074       -0.78859
H          2.54782        2.64430        0.82926
H          2.56952        2.51179       -0.94078
H          6.11152       -0.75822        0.26031
H          0.38349        3.49272       -0.15360
H          0.09235        1.90717       -0.93428
H          0.06843        2.04298        0.84949
