27
N-BUTYL_BENZOATE.gamout	Energy:    -577.6457608
O          3.78963        3.88216        4.84721
C          3.94498        3.99866        3.50030
O          3.41980        4.88139        2.83894
C          4.82202        2.92231        2.93527
C          2.96179        4.88623        5.48254
C          4.99929        2.88602        1.53463
C          5.46060        1.95838        3.74634
C          2.75024        4.48427        6.93785
C          5.79911        1.89247        0.95124
C          6.26131        0.96636        3.15859
C          1.98952        3.16155        7.15196
C          6.42955        0.93029        1.76216
C          0.53226        3.17413        6.67116
H          3.47229        5.87084        5.40280
H          2.01017        4.97252        4.91668
H          4.49327        3.65076        0.92560
H          5.32556        1.99834        4.83674
H          3.74243        4.42746        7.43716
H          2.20394        5.31908        7.43299
H          5.93233        1.86555       -0.14189
H          6.75741        0.21532        3.79362
H          2.54363        2.34497        6.63924
H          2.01756        2.91370        8.23566
H          7.05678        0.14907        1.30352
H         -0.05677        3.97243        7.17251
H          0.45480        3.34306        5.57646
H          0.03140        2.20748        6.88546
