14
N-BUTANE.gamout	Energy:    -158.3286713
C          3.61965        1.12150        0.90172
C          2.57558        0.83122        1.98687
C          1.70721        2.04697        2.35047
C          0.66406        1.75712        3.43663
H          3.13996        1.45846       -0.04239
H          4.22687        0.22319        0.66421
H          4.32143        1.92300        1.21797
H          3.08385        0.46005        2.90629
H          1.91386       -0.00141        1.65511
H          1.19809        2.41754        1.43128
H          2.36899        2.87994        2.68125
H         -0.03745        0.95484        3.12172
H          0.05641        2.65529        3.67357
H          1.14459        1.42147        4.38077
