27
N-BUTYLCYCLOPENTANE.gamout	Energy:    -353.5346100
C          3.02375        4.22214        1.65905
C          4.14293        3.48252        0.90089
C          4.91118        2.41796        1.70179
C          1.84497        3.33859        2.09978
C          5.68300        2.95043        2.93591
C          6.01550        1.69205        0.90241
C          0.71491        4.12117        2.77993
C          6.81604        1.91774        3.21573
C          6.83661        0.96314        1.98391
H          3.45195        4.73648        2.55010
H          2.63310        5.03559        1.00531
H          3.70706        3.00397       -0.00655
H          4.87981        4.23021        0.52522
H          4.18985        1.64162        2.05231
H          2.20714        2.54500        2.79123
H          1.44044        2.80181        1.21056
H          6.11923        3.94335        2.68377
H          5.02471        3.10980        3.81518
H          5.61320        1.00929        0.12414
H          6.64422        2.44951        0.37856
H         -0.12042        3.45647        3.08470
H          1.07232        4.64408        3.69342
H          0.29271        4.89619        2.10405
H          7.79202        2.43104        3.34276
H          6.63880        1.35559        4.15607
H          6.34112        0.00084        2.23749
H          7.86515        0.71185        1.65102
