19
N-CAPROYL_CHLORIDE.gamout	Energy:    -770.3711341
C         35.05758       30.09003       -0.00018
C         36.33635       29.24496        0.00006
C         35.31185       31.58020        0.00003
C         36.05411       27.73516       -0.00015
Cl        33.73546       32.52729       -0.00015
O         36.36256       32.15006        0.00030
C         37.32834       26.87531        0.00015
C         37.05090       25.36743       -0.00006
H         34.41101       29.87432       -0.88057
H         34.41061       29.87415        0.87987
H         36.95117       29.51657        0.88595
H         36.95167       29.51674       -0.88542
H         35.43299       27.47347       -0.88821
H         35.43251       27.47332        0.88754
H         37.94626       27.14255        0.88731
H         37.94681       27.14269       -0.88659
H         37.99197       24.77910        0.00021
H         36.46740       25.06143       -0.89470
H         36.46681       25.06130        0.89416
