42
N-DECYLBENZENE.gamout	Energy:    -624.9072681
C          3.73540        2.65158        3.91639
C          4.15730        3.99412        3.27761
C          3.61832        4.23264        1.87922
C          4.28685        2.45579        5.33835
C          2.74105        5.30342        1.61161
C          3.98443        3.39298        0.80549
C          3.88466        1.12483        6.00160
C          2.24413        5.52969        0.31761
C          3.48991        3.61298       -0.48860
C          4.43871        0.94347        7.42608
C          2.61602        4.68401       -0.73850
C          4.04851       -0.38645        8.09831
C          4.60745       -0.55788        9.52216
C          4.22758       -1.88577       10.20186
C          4.79129       -2.04672       11.62303
C          4.41038       -3.37322       12.29358
H          4.07203        1.81247        3.26645
H          2.62357        2.59089        3.93192
H          5.27069        4.04722        3.25674
H          3.82988        4.82750        3.93639
H          5.39932        2.53083        5.31485
H          3.94667        3.30254        5.97909
H          2.44504        5.97409        2.43423
H          4.67691        2.55526        0.98413
H          4.22836        0.27843        5.36241
H          2.77280        1.04682        6.02567
H          1.56150        6.37346        0.13487
H          3.79151        2.94588       -1.31064
H          5.55050        1.02625        7.39928
H          4.09399        1.79157        8.06279
H          2.22885        4.85871       -1.75400
H          2.93716       -0.47272        8.12652
H          4.39616       -1.23423        7.46280
H          5.71868       -0.46864        9.49204
H          4.25945        0.29069       10.15653
H          4.57771       -2.73616        9.57091
H          3.11674       -1.97915       10.23626
H          4.44117       -1.19724       12.25341
H          5.90110       -1.95285       11.58892
H          4.78114       -4.24404       11.71114
H          4.83592       -3.44940       13.31503
H          3.30786       -3.48196       12.38233
