38
N-DECYL_ACETATE.gamout	Energy:    -621.7399148
C          5.45923        1.74339        1.76261
C          6.77933        1.31011        1.10488
C          4.23909        1.11303        1.10421
C          8.02910        1.92702        1.75622
O          3.06268        1.58768        1.79448
C          9.35489        1.50096        1.10050
C          1.87469        1.10678        1.33628
C         10.60595        2.11268        1.75587
C          0.72455        1.68191        2.13511
O          1.77962        0.32355        0.40910
C         11.93226        1.69157        1.09788
C         13.18457        2.29733        1.75446
C         14.50678        1.87805        1.09143
C         15.74908        2.48463        1.75468
H          5.46218        1.47161        2.84190
H          5.35796        2.85081        1.72223
H          6.75628        1.57867        0.02323
H          6.85895        0.19892        1.13658
H          4.15867        1.37847        0.02674
H          4.26545        0.00172        1.15286
H          8.04943        1.65497        2.83732
H          7.94739        3.03843        1.72934
H          9.33356        1.77582        0.01996
H          9.43538        0.38922        1.12364
H         10.52505        3.22452        1.73749
H         10.62685        1.83322        2.83531
H          0.72319        2.78818        2.05887
H         -0.22893        1.27611        1.75445
H          0.84216        1.43235        3.20900
H         11.91126        1.97356        0.01908
H         12.01276        0.57963        1.11346
H         13.20951        2.01157        2.83237
H         13.10723        3.40970        1.74281
H         14.48299        2.16524        0.01498
H         14.58539        0.76682        1.10165
H         15.72541        3.59548        1.72807
H         15.82989        2.18379        2.82158
H         16.68075        2.16052        1.24736
