45
N-DECYLCYCLOPENTANE.gamout	Energy:    -589.2227669
C          4.86483        2.59221        3.25254
C          3.34099        2.63540        3.04228
C          2.87931        2.18715        1.63849
C          5.34098        2.91727        4.68236
C          1.34275        2.10022        1.49725
C          3.23415        3.19390        0.52097
C          5.08082        4.36671        5.12457
C          0.87306        3.54266        1.18258
C          2.11100        4.26021        0.56458
C          5.73503        4.81465        6.44565
C          5.22983        4.13583        7.73928
C          5.96539        2.85204        8.16339
C          5.44140        2.25882        9.48123
C          6.10649        0.94142        9.92308
C          7.59350        1.06007       10.28001
H          5.23070        1.57912        2.97061
H          5.36291        3.29304        2.54392
H          2.85756        1.97736        3.80008
H          2.95838        3.66033        3.25318
H          3.33911        1.19516        1.43252
H          4.86664        2.20451        5.39470
H          6.43432        2.71843        4.74269
H          0.85130        1.66811        2.39301
H          1.10262        1.42746        0.64643
H          4.24941        3.62641        0.62828
H          3.21874        2.66484       -0.45602
H          3.98477        4.55284        5.19063
H          5.44598        5.04380        4.31889
H          0.00194        3.54339        0.49603
H          0.53260        4.06015        2.10439
H          2.40903        5.13114        1.18524
H          1.90100        4.66529       -0.44583
H          6.84148        4.69684        6.37326
H          5.56525        5.90843        6.53981
H          4.13803        3.92912        7.64420
H          5.31134        4.86795        8.57347
H          5.88994        2.08326        7.36245
H          7.05120        3.08079        8.25584
H          5.55502        3.01366       10.29479
H          4.34516        2.08968        9.38658
H          5.55232        0.54769       10.80317
H          5.97406        0.17520        9.12481
H          7.99936        0.09245       10.63962
H          8.20951        1.36996        9.40964
H          7.75707        1.80961       11.08434
