40
N-DODECYLAMINE.gamout	Energy:    -527.8953501
N        179.99042       -0.25778        0.04053
C        179.24591        1.00359       -0.01998
C        180.20032        2.20558       -0.01160
C        179.48246        3.56343       -0.01449
C        180.42697        4.77825       -0.01523
C        179.70330        6.13633       -0.01094
C        180.64493        7.35405       -0.01176
C        179.91957        8.71141       -0.00569
C        180.86064        9.92975       -0.00565
C        180.13620       11.28759        0.00202
C        181.07694       12.50531        0.00305
C        180.35229       13.86111        0.01207
C        181.30085       15.06704        0.01354
H        179.33436       -1.05025        0.06275
H        180.53076       -0.37857       -0.82888
H        178.59236        1.05914        0.88024
H        178.55607        1.10184       -0.90164
H        180.87218        2.13758       -0.89993
H        180.86384        2.11462        0.87695
H        178.81223        3.62186        0.87437
H        178.80911        3.62244       -0.90115
H        181.09672        4.72057       -0.90473
H        181.10141        4.71691        0.87024
H        179.03393        6.19279        0.87899
H        179.02797        6.19587       -0.89620
H        181.31418        7.29857       -0.90183
H        181.32059        7.29433        0.87315
H        179.25064        8.76619        0.88468
H        179.24377        8.77116       -0.89055
H        181.52976        9.87521       -0.89591
H        181.53657        9.86910        0.87903
H        179.46757       11.34226        0.89266
H        179.46025       11.34908       -0.88261
H        181.74605       12.45376       -0.88759
H        181.75330       12.44598        0.88767
H        179.68445       13.91456        0.90226
H        179.67676       13.92266       -0.87179
H        180.74201       16.02532        0.02069
H        181.95604       15.07065       -0.88420
H        181.96396       15.06199        0.90545
