38
N-DODECANE.gamout	Energy:    -472.5911419
C          3.52667        1.92967        6.81943
C          2.15488        1.39955        7.27468
C          2.16851        0.70958        8.65068
C          3.51278        2.61971        5.44344
C          0.79677        0.17830        9.10478
C          4.88423        3.15159        4.98870
C          0.80741       -0.51509       10.47826
C          4.87294        3.84511        3.61524
C         -0.56401       -1.04781       10.92551
C          6.24407        4.37837        3.16774
C         -0.54075       -1.74179       12.29328
C          6.22029        5.07266        1.80013
H          4.25724        1.08739        6.80109
H          3.91546        2.64292        7.58349
H          1.76626        0.68609        6.51075
H          1.42410        2.24165        7.29288
H          2.55743        1.42262        9.41483
H          2.89933       -0.13250        8.63155
H          2.78159        3.46148        5.46271
H          3.12400        1.90654        4.67931
H          0.40933       -0.53413        8.33920
H          0.06533        1.01987        9.12372
H          5.61589        2.31021        4.96926
H          5.27189        3.86400        5.75421
H          1.19308        0.19465       11.24743
H          1.53755       -1.35804       10.45960
H          4.14247        4.68778        3.63407
H          4.48741        3.13526        2.84610
H         -1.29461       -0.20674       10.94512
H         -0.94789       -1.75674       10.15612
H          6.97488        3.53748        3.14770
H          6.62803        5.08720        3.93717
H          0.15085       -2.61161       12.29469
H         -1.54608       -2.11397       12.57746
H         -0.20132       -1.05055       13.09472
H          5.88071        4.38151        0.99870
H          7.22552        5.44492        1.51579
H          5.52866        5.94248        1.79899
