98
N-DOTRIACONTANE.gamout	Energy:   -1258.2357287
C         15.92240        3.18219        7.76433
C         14.48178        2.68928        7.53870
C         13.54052        3.03395        8.70527
C         16.90747        2.85660        6.62752
C         12.10695        2.47456        8.63785
C         18.33943        3.35744        6.89232
C         11.21641        2.98848        7.48410
C         19.35560        3.03719        5.78037
C         11.21519        2.10566        6.22364
C         20.77825        3.54838        6.07645
C         10.30160        2.60324        5.08048
C         21.81838        3.23518        4.98444
C          8.88179        2.00590        5.04304
C         23.23224        3.75652        5.30410
C          7.97729        2.32602        6.24600
C         24.28983        3.45100        4.22663
C          6.54111        1.78842        6.11214
C         25.69639        3.98136        4.56292
C          5.63803        2.09566        7.32243
C         26.76587        3.68295        3.49519
C          4.20313        1.54832        7.20324
C         28.16711        4.22030        3.84231
C          3.30536        1.85185        8.41749
C         29.24420        3.92777        2.78067
C          1.87860        1.28956        8.29569
C         30.64152        4.47009        3.13443
C          0.93402        1.63298        9.46382
C         31.72303        4.18329        2.07745
C          1.31583        1.01622       10.81958
C         33.11454        4.72929        2.43787
C          0.30567        1.31990       11.93284
C         34.18511        4.44143        1.37772
H         15.90890        4.28480        7.93044
H         16.30610        2.74376        8.71505
H         14.09103        3.12485        6.59124
H         14.48707        1.58521        7.38385
H         14.00377        2.66533        9.64801
H         13.49088        4.14271        8.81480
H         16.92697        1.75410        6.46147
H         16.53312        3.29488        5.67316
H         12.14551        1.36085        8.60358
H         11.61884        2.71824        9.60510
H         18.70213        2.92168        7.85250
H         18.31562        4.46019        7.05699
H         10.17230        3.08478        7.85044
H         11.52180        4.02469        7.20840
H         19.00118        3.47196        4.81679
H         19.38574        1.93469        5.61581
H         12.25576        2.01213        5.84696
H         10.91735        1.06992        6.51002
H         21.12498        3.11576        7.04390
H         20.74238        4.65099        6.24003
H         10.23229        3.71533        5.12010
H         10.78270        2.37413        4.10651
H         21.47829        3.66696        4.01434
H         21.85916        2.13283        4.82086
H          8.38207        2.36143        4.11438
H          8.95985        0.89868        4.93262
H         23.18563        4.85875        5.46754
H         23.56800        3.32602        6.27633
H          8.42900        1.90855        7.17460
H          7.94741        3.43055        6.39632
H         23.95927        3.88044        3.25221
H         24.34010        2.34896        4.06346
H          6.57534        0.68479        5.95561
H          6.07628        2.20632        5.18887
H         25.64101        5.08309        4.72680
H         26.02505        3.55206        5.53810
H          6.11126        1.68005        8.24269
H          5.60020        3.19902        7.48043
H         26.82359        2.58131        3.33186
H         26.44100        4.11100        2.51824
H          3.72800        1.95949        6.28193
H          4.24510        0.44462        7.04888
H         28.49145        3.79176        4.81926
H         28.10516        5.32156        4.00697
H          3.25322        2.95565        8.56905
H          3.79037        1.44680        9.33485
H         29.30753        2.82654        2.61660
H         28.92227        4.35533        1.80251
H          1.92854        0.18084        8.18393
H          1.42411        1.66321        7.35050
H         30.96431        4.04196        4.11208
H         30.57543        5.57102        3.29988
H          0.86828        2.74115        9.57253
H         -0.09262        1.29764        9.19511
H         31.40518        4.61207        1.09830
H         31.79366        3.08275        1.91091
H          2.32087        1.38125       11.12765
H          1.41965       -0.08704       10.70163
H         33.04453        5.82878        2.60450
H         33.43515        4.30050        3.41501
H          0.20217        2.41339       12.10267
H          0.61069        0.86351       12.89711
H         -0.70471        0.92849       11.68494
H         34.31430        3.35009        1.21234
H         35.17188        4.85127        1.67509
H         33.91855        4.89299        0.39774
