51
N-DODECYLCYCLOPENTANE.gamout	Energy:    -667.7980649
C         -0.68603       -0.76866       -0.08324
C          0.82917       -0.61156        0.16624
C          1.17003        0.82423       -0.30543
C         -0.17057        1.62091       -0.24554
C         -1.21799        0.62706        0.30572
C         -1.37016       -1.93498        0.64828
C         -0.92371       -3.34344        0.21481
C         -1.67604       -4.47765        0.93486
C         -1.25874       -5.89743        0.51156
C         -2.02369       -7.01435        1.24520
C         -1.62639       -8.44335        0.83445
C         -2.40249       -9.54351        1.58178
C         -2.02183      -10.98113        1.18632
C         -2.80765      -12.06522        1.94636
C         -2.44075      -13.50953        1.56678
C         -3.23434      -14.57784        2.33697
C         -2.86640      -16.01756        1.95962
H         -0.84510       -0.90235       -1.18148
H          1.44029       -1.38184       -0.34573
H          1.02263       -0.71965        1.25811
H          1.56831        0.81081       -1.34189
H          1.96118        1.28166        0.32286
H         -0.46119        1.96513       -1.26084
H         -0.09732        2.53270        0.38141
H         -1.27192        0.69155        1.41657
H         -2.24107        0.82124       -0.07666
H         -2.47068       -1.84586        0.50091
H         -1.20586       -1.81447        1.74565
H          0.17018       -3.46300        0.38870
H         -1.06463       -3.44855       -0.88629
H         -2.77118       -4.35196        0.76559
H         -1.53320       -4.36693        2.03530
H         -0.16447       -6.02790        0.68164
H         -1.40445       -6.01318       -0.58798
H         -3.11768       -6.87572        1.07856
H         -1.87536       -6.89509        2.34410
H         -0.53315       -8.58574        1.00227
H         -1.77698       -8.56827       -0.26343
H         -3.49526       -9.39434        1.41573
H         -2.25071       -9.41370        2.67907
H         -0.92983      -11.13335        1.35404
H         -2.17550      -11.11670        0.09008
H         -3.89925      -11.90864        1.77945
H         -2.65383      -11.92540        3.04220
H         -1.35035      -13.67202        1.73614
H         -2.59653      -13.65766        0.47227
H         -4.32384      -14.41562        2.16796
H         -3.07916      -14.42934        3.43050
H         -3.04909      -16.21797        0.88173
H         -3.46107      -16.75350        2.53864
H         -1.79320      -16.22993        2.15565
