39
N-DODECYL_MERCAPTAN.gamout	Energy:    -870.6948602
C        120.97868       10.04816       -0.00005
C        119.68781        9.20922       -0.00034
C        119.92962        7.68928       -0.00007
C        120.74561       11.56954       -0.00028
C        118.64179        6.84531       -0.00030
C        122.04124       12.40200        0.00009
C        118.88704        5.32617        0.00006
C        121.82025       13.92452       -0.00009
C        117.59524        4.48780       -0.00019
C        123.12132       14.74552        0.00031
C        117.85815        2.97691        0.00021
C        122.89554       16.26211        0.00017
S        116.24562        2.07324       -0.00027
H        121.59414        9.77106        0.88757
H        121.59473        9.77084       -0.88719
H        119.07160        9.48408       -0.88803
H        119.07111        9.48433        0.88693
H        120.54662        7.41602        0.88767
H        120.54712        7.41573       -0.88738
H        120.13085       11.84775       -0.88796
H        120.13033       11.84799        0.88697
H        118.02481        7.11719       -0.88813
H        118.02428        7.11745        0.88709
H        122.65508       12.12118        0.88770
H        122.65580       12.12114       -0.88702
H        119.50081        5.05043        0.88875
H        119.50134        5.04997       -0.88812
H        121.20876       14.20995       -0.88791
H        121.20818       14.21015        0.88728
H        116.97814        4.74779       -0.89000
H        116.97751        4.74807        0.88912
H        123.73177       14.45959        0.88748
H        123.73243       14.45955       -0.88641
H        118.44160        2.68360        0.89867
H        118.44233        2.68318       -0.89764
H        123.85664       16.81644        0.00051
H        122.32339       16.59017       -0.89432
H        122.32271       16.59029        0.89419
H        116.77059        0.81437        0.00025
