54
N-DODECYLCYCLOHEXANE.gamout	Energy:    -707.0747371
C          1.49574        2.51848        1.65835
C          1.94382        3.42984        2.80879
C          0.52651        3.25657        0.70518
C          2.77738        4.64258        2.29750
C          2.33093        5.04263        0.86702
C          4.29195        4.35232        2.38176
C          0.83638        4.77126        0.63652
C          5.22712        5.50938        1.98531
C          6.72187        5.17276        2.13497
C          7.67130        6.32190        1.75459
C          9.17151        5.96844        1.78778
C          9.75028        5.63327        3.17267
C         11.26412        5.36292        3.15276
C         11.90773        5.09943        4.52769
C         11.43584        3.84093        5.28192
C         11.73671        2.51021        4.57523
C         11.30731        1.25176        5.35286
C         12.08082        1.00657        6.65358
H          2.39545        2.17606        1.10017
H          1.02113        1.59587        2.05241
H          1.04473        3.78802        3.35698
H          2.53890        2.85747        3.55096
H          0.59523        2.80812       -0.30882
H         -0.52424        3.10748        1.03539
H          2.56299        5.50350        2.97210
H          2.56274        6.11054        0.67534
H          2.92093        4.46531        0.11708
H          4.51993        3.46449        1.74447
H          4.53124        4.03988        3.42389
H          0.24938        5.32021        1.40693
H          0.51226        5.18595       -0.34025
H          5.02730        5.80696        0.93087
H          4.98401        6.40680        2.60146
H          6.95983        4.28470        1.50340
H          6.91925        4.85298        3.18369
H          7.47805        7.19783        2.41763
H          7.42253        6.66844        0.72646
H          9.74180        6.82196        1.35633
H          9.35436        5.11132        1.09734
H          9.22133        4.74936        3.59409
H          9.53727        6.47389        3.87464
H         11.78054        6.23707        2.69610
H         11.47836        4.50880        2.46942
H         11.73873        5.98569        5.18074
H         13.01082        5.04059        4.38895
H         10.34209        3.90689        5.48616
H         11.92033        3.84773        6.28279
H         12.82919        2.44935        4.35614
H         11.23391        2.49630        3.58276
H         11.42758        0.36816        4.68791
H         10.21620        1.31106        5.57284
H         13.17443        0.93459        6.46686
H         11.92530        1.81934        7.39407
H         11.76677        0.05984        7.13955
