62
N-EICOSANOIC_ACID.gamout	Energy:    -936.0019985
C         -0.10984       -0.47747       -0.22871
C          1.17524        0.34193       -0.05584
O         11.52727       22.17382        0.83356
C         11.27652       21.29413        0.04125
O         12.18434       20.96811       -0.93054
C          9.97452       20.48872        0.01556
C         10.15385       18.95708        0.08933
C          8.82245       18.18416        0.08225
C          8.98629       16.65520        0.16252
C          7.65766       15.87695        0.11072
C          7.82291       14.34810        0.19562
C          6.50191       13.56042        0.10384
C          6.67566       12.03253        0.19283
C          5.36345       11.23403        0.07441
C          5.54711        9.70744        0.16609
C          4.24233        8.89986        0.03040
C          4.43399        7.37426        0.12353
C          3.13475        6.55993       -0.02359
C          3.33244        5.03463        0.07062
C          2.03883        4.21307       -0.08457
C          2.24519        2.68988        0.01103
C          0.95868        1.86134       -0.15110
H          0.08825       -1.56687       -0.15781
H         -0.86314       -0.22599        0.54887
H         -0.58143       -0.28821       -1.21701
H          1.91908        0.03041       -0.82484
H          1.64322        0.09903        0.92571
H         11.82883       20.22842       -1.46321
H          9.36536       20.85326        0.86568
H          9.42291       20.75458       -0.91603
H         10.77577       18.59941       -0.76616
H         10.73157       18.70105        1.00522
H          8.19517       18.53502        0.93341
H          8.25338       18.44951       -0.83868
H          9.64234       16.31144       -0.67095
H          9.52978       16.39320        1.09936
H          6.99707       16.22321        0.93918
H          7.11888       16.13772       -0.82965
H          8.50712       14.00792       -0.61644
H          8.33866       14.08771        1.14887
H          5.81454       13.90097        0.91298
H          5.98810       13.81699       -0.85165
H          7.37986       11.69754       -0.60432
H          7.17400       11.77643        1.15666
H          4.65713       11.56858        0.86973
H          4.86630       11.48624       -0.89110
H          6.26448        9.37780       -0.62155
H          6.03508        9.45475        1.13623
H          3.52333        9.22940        0.81644
H          3.75609        9.14877       -0.94157
H          5.16006        7.04908       -0.65801
H          4.91550        7.12396        1.09759
H          2.40723        6.88554        0.75625
H          2.65566        6.80660       -0.99973
H          4.06531        4.71327       -0.70619
H          3.80928        4.78684        1.04768
H          1.30448        4.53421        0.69078
H          1.56415        4.45694       -1.06362
H          2.98402        2.37226       -0.76169
H          2.71780        2.44471        0.99084
H          0.21727        2.17502        0.62083
H          0.48631        2.10120       -1.13245
