20
N-ETHYLANILINE.gamout	Energy:    -365.9580741
C          7.79349        5.14450       -1.71889
C          6.63826        4.15594       -1.55240
N          7.09412        2.92327       -0.93409
C          6.26033        1.84714       -0.66334
C          6.82162        0.59645       -0.28211
C          4.84498        1.94908       -0.73412
C          6.00213       -0.49631        0.02312
C          4.59891       -0.38527       -0.03851
C          4.03619        0.84446       -0.41812
H          7.43790        6.08947       -2.17574
H          8.25735        5.38454       -0.73972
H          8.58355        4.73148       -2.38296
H          6.15467        3.96704       -2.54543
H          5.85133        4.61558       -0.91201
H          8.07204        2.68159       -1.10691
H          7.91882        0.49549       -0.22440
H          4.37226        2.89499       -1.03603
H          6.46774       -1.45186        0.31487
H          3.95723       -1.24675        0.20186
H          2.94079        0.95228       -0.47910
