15
N-ETHYLACETAMIDE.gamout	Energy:    -287.6269499
C         -1.42026       -0.42841        0.00729
C         -2.71189        0.38565        0.00200
N         -0.24411        0.43727       -0.00971
C          1.02909       -0.08177       -0.01076
C          2.15584        0.95209        0.00593
O          1.23530       -1.29529       -0.00021
H         -1.37208       -1.09278        0.89954
H         -1.37858       -1.11307       -0.86961
H         -2.78873        1.02257       -0.90510
H         -3.59369       -0.28604        0.01333
H         -2.78284        1.04467        0.89374
H         -0.37894        1.45017       -0.01842
H          2.43957        1.17788        1.05599
H          3.04138        0.51470       -0.49174
H          1.88421        1.90539       -0.49250
