19
N-ETHYLPYRROLIDONE.gamout	Energy:    -364.9915337
C         -1.71317        0.11871       -0.49021
C         -2.62376        0.64400        0.62810
N         -0.29352        0.20662       -0.18655
C          0.50219       -0.92301       -0.06595
C          1.95538       -0.43938        0.05408
C          1.83274        1.06180        0.36541
C          0.46249        1.45338       -0.23781
O          0.10099       -2.08150       -0.08954
H         -1.91066       -0.95857       -0.67432
H         -1.91696        0.66538       -1.44101
H         -2.42684        1.71234        0.85806
H         -3.68883        0.55945        0.32805
H         -2.48063        0.05920        1.55949
H          2.49941       -1.03153        0.81567
H          2.45313       -0.63324       -0.92234
H          1.81246        1.22108        1.46412
H          2.66036        1.67609       -0.04143
H          0.55929        1.81496       -1.29203
H         -0.03958        2.25987        0.33927
