17
N-FORMYLMORPHOLINE.gamout	Energy:    -400.8512222
C          1.83784        1.93342       -0.50591
C          0.47115        2.19132        0.14192
N          2.28591        0.58130       -0.17857
O         -0.46946        1.17513       -0.19796
C         -0.02821       -0.10467        0.23443
C          1.31308       -0.47793       -0.41668
C          3.52799        0.36037        0.37003
O          4.36351        1.22375        0.60470
H          2.61251        2.63515       -0.13535
H          1.75846        2.04656       -1.61231
H          0.04483        3.15113       -0.21478
H          0.59166        2.25004        1.25319
H         -0.81707       -0.83083       -0.05101
H          0.08562       -0.12440        1.34861
H          1.70525       -1.43038       -0.00024
H          1.16088       -0.61817       -1.51312
H          3.69070       -0.73648        0.58401
