20
N-HEXANOIC_ACID.gamout	Energy:    -386.0445150
C          0.88495        4.44965        3.52833
C          2.38575        4.16812        3.38917
C          2.70574        2.93842        2.52385
C          4.20921        2.66118        2.38770
C          4.53200        1.43708        1.52589
C          6.03235        1.16413        1.39504
O          6.36019        0.07711        0.63136
O          6.90424        1.82869        1.90862
H          0.69207        5.34290        4.15794
H          0.41241        4.63182        2.53902
H          0.35227        3.59261        3.99375
H          2.89619        5.05796        2.95561
H          2.83668        4.02807        4.39798
H          2.25737        3.07611        1.51175
H          2.19828        2.04417        2.95599
H          4.72487        3.54572        1.95483
H          4.66543        2.51861        3.39147
H          4.04882        0.52122        1.94112
H          4.11057        1.55249        0.49933
H          5.54363       -0.34395        0.29508
