23
N-HEXYL_FORMATE.gamout	Energy:    -425.3094069
C         86.10571        9.94252        0.16952
C         84.88147        9.02399        0.30853
C         85.26088        7.54791        0.42045
C         85.74757       11.43277        0.05737
O         84.09347        6.71809        0.57099
C         86.96771       12.35013       -0.12457
C         83.69712        5.97536       -0.49396
C         86.60681       13.83650       -0.23437
O         82.71289        5.28079       -0.48244
H         86.78330        9.79317        1.04165
H         86.69647        9.63850       -0.72533
H         84.20786        9.15557       -0.56768
H         84.28694        9.30932        1.20387
H         85.89103        7.36338        1.31590
H         85.84244        7.22052       -0.47397
H         85.04619       11.58034       -0.79594
H         85.18448       11.74522        0.96662
H         87.66732       12.19824        0.72871
H         87.52866       12.03251       -1.03282
H         84.40198        6.07992       -1.37203
H         87.50895       14.46779       -0.37166
H         85.93171       14.02828       -1.09580
H         86.08523       14.19604        0.67840
