53
N-HEPTADECANE.gamout	Energy:    -669.0051018
C          6.55936        3.33669        3.48615
C          5.05040        3.03297        3.49168
C          4.22569        3.92673        2.54752
C          7.39154        2.43279        4.41387
C          2.71083        3.65707        2.58296
C          8.89484        2.76670        4.43371
C          1.89010        4.53712        1.62198
C          9.73593        1.85764        5.34888
C          0.37061        4.29767        1.68642
C         11.23367        2.21540        5.38665
C         -0.44940        5.16372        0.71247
C         12.08158        1.30791        6.29528
C         -1.97028        4.94639        0.79979
C         13.57153        1.68569        6.34420
C         -2.78742        5.80192       -0.18154
C         14.40927        0.77766        7.25328
C         -4.30246        5.58955       -0.07078
H          6.71677        4.40299        3.77300
H          6.95029        3.25094        2.44522
H          4.66056        3.13763        4.53132
H          4.88750        1.96423        3.21813
H          4.41066        4.99758        2.79854
H          4.60143        3.80035        1.50488
H          7.25610        1.36950        4.10620
H          6.98706        2.49830        5.45087
H          2.33955        3.80517        3.62437
H          2.51944        2.58364        2.34928
H          9.29638        2.71306        3.39479
H          9.02867        3.82835        4.74822
H          2.09990        5.61126        1.83608
H          2.24750        4.37017        0.57856
H          9.32278        1.89512        6.38380
H          9.62175        0.79873        5.01845
H          0.01759        4.48360        2.72805
H          0.15688        3.22131        1.48848
H         11.64362        2.18292        4.35018
H         11.34873        3.27382        5.71873
H         -0.10863        4.96485       -0.33077
H         -0.22281        6.24005        0.89628
H         11.66484        1.32929        7.32943
H         11.98494        0.25039        5.95473
H         -2.20085        3.86911        0.62662
H         -2.31097        5.15950        1.84027
H         13.67068        2.74169        6.68546
H         13.98942        1.66432        5.31169
H         -2.55136        6.87838       -0.01702
H         -2.45868        5.58191       -1.22323
H         14.04349        0.80002        8.30255
H         14.37764       -0.28092        6.91608
H         15.47436        1.08779        7.26755
H         -4.85464        6.22094       -0.79640
H         -4.58294        4.53254       -0.26881
H         -4.67803        5.84516        0.94356
