36
N-HEXYLCYCLOHEXANE.gamout	Energy:    -471.3828808
C          5.70647        1.99799        1.80416
C          7.10896        1.83201        2.41499
C          8.27552        2.33934        1.53912
C          4.57183        1.39937        2.65476
C          8.14172        3.84401        1.18516
C          9.65725        2.05596        2.19716
C          3.17016        1.57599        2.04774
C          9.49295        4.46337        0.79858
C         10.19511        3.27726        2.95597
C          2.03586        0.97311        2.89215
C         10.47449        4.45669        1.99469
C          0.64215        1.16195        2.28097
H          5.68773        1.52871        0.79219
H          5.49915        3.07852        1.63328
H          7.28253        0.75468        2.63926
H          7.14479        2.35133        3.40259
H          8.23582        1.76839        0.58262
H          4.59066        1.85694        3.67161
H          4.76991        0.31396        2.81725
H          7.72546        4.39829        2.05882
H          7.40535        3.97769        0.36649
H          9.57839        1.18056        2.87599
H         10.39362        1.76461        1.41670
H          3.14605        1.12349        1.02863
H          2.97169        2.66247        1.89235
H          9.35264        5.49697        0.41952
H          9.92126        3.88726       -0.05225
H          9.45255        3.57873        3.72827
H         11.11472        3.01217        3.51772
H          2.05995        1.42273        3.91142
H          2.23066       -0.11333        3.04503
H         11.51854        4.40251        1.61794
H         10.40401        5.41241        2.55712
H          0.39430        2.23811        2.15530
H          0.56784        0.68784        1.27852
H         -0.14597        0.71303        2.91963
