80
N-HEXACOSANE.gamout	Energy:   -1022.5505320
C         15.58788       -0.46764       -4.15569
C         14.45869        0.33733       -3.49880
C         13.11687       -0.41160       -3.44668
C         11.97309        0.38543       -2.79610
C         10.63021       -0.36506       -2.75176
C          9.47872        0.42999       -2.11039
C          8.13817       -0.32590       -2.07797
C          6.97680        0.46339       -1.44695
C          5.63979       -0.29967       -1.42788
C          4.46752        0.48185       -0.80684
C          3.13468       -0.28925       -0.80174
C          1.95174        0.48357       -0.18961
C          0.62329       -0.29535       -0.19832
C         -0.56898        0.46907        0.40663
C         -1.89382       -0.31601        0.38561
C         -3.09306        0.44136        0.98606
C         -4.41532       -0.34786        0.95547
C         -5.61852        0.40397        1.55510
C         -6.93919       -0.38762        1.51871
C         -8.14351        0.35963        2.12165
C         -9.46320       -0.43354        2.08343
C        -10.66698        0.30893        2.69303
C        -11.98525       -0.48628        2.65603
C        -13.18823        0.24897        3.27322
C        -14.50072       -0.55119        3.23748
C        -15.69200        0.18689        3.86192
H         15.78068       -1.41566       -3.60885
H         15.33813       -0.73658       -5.20472
H         16.53802        0.10477       -4.17621
H         14.75925        0.62478       -2.46500
H         14.32068        1.29779       -4.04651
H         12.82040       -0.69969       -4.48264
H         13.25551       -1.37242       -2.89774
H         12.26872        0.67471       -1.76044
H         11.83856        1.34601       -3.34634
H         10.34027       -0.65443       -3.78906
H         10.76450       -1.32501       -2.20054
H          9.76424        0.72065       -1.07232
H          9.34490        1.39001       -2.66179
H          7.85883       -0.61616       -3.11793
H          8.27154       -1.28545       -1.52577
H          7.25117        0.75500       -0.40615
H          6.84323        1.42297       -1.99919
H          5.37211       -0.59007       -2.47086
H          5.77315       -1.25924       -0.87568
H          4.73031        0.77353        0.23692
H          4.33329        1.44134       -1.35906
H          2.87864       -0.57881       -1.84787
H          3.26845       -1.24940       -0.25062
H          2.20333        0.77422        0.85719
H          1.81655        1.44342       -0.74095
H          0.37802       -0.58308       -1.24752
H          0.75744       -1.25664        0.35075
H         -0.32701        0.75753        1.45630
H         -0.70477        1.42982       -0.14296
H         -2.13052       -0.60100       -0.66631
H         -1.75966       -1.27888        0.93191
H         -2.85805        0.72651        2.03823
H         -3.22913        1.40363        0.43923
H         -4.64672       -0.62940       -0.09855
H         -4.28106       -1.31269        1.49830
H         -5.38681        0.68487        2.60918
H         -5.75517        1.36839        1.01220
H         -7.16915       -0.66511        0.46330
H         -6.80395       -1.35467        2.05741
H         -7.91148        0.63575        3.17695
H         -8.28180        1.32660        1.58370
H         -9.69496       -0.70675        1.02730
H         -9.32528       -1.40288        2.61745
H        -10.43210        0.58030        3.74898
H        -10.80840        1.27853        2.16057
H        -12.22112       -0.75555        1.59977
H        -11.84319       -1.45758        3.18550
H        -12.95240        0.51615        4.33019
H        -13.33747        1.22066        2.74637
H        -14.73945       -0.81727        2.18202
H        -14.35190       -1.52279        3.76259
H        -15.50500        0.43092        4.93000
H        -15.89962        1.14416        3.33674
H        -16.61664       -0.42417        3.81749
