83
N-HEPTACOSANE.gamout	Energy:   -1061.8197083
C          3.75698        2.36127        2.00290
C          3.19326        3.44830        1.07251
C          1.65663        3.44558        1.00391
C          5.28977        2.34444        2.15870
C          1.03569        4.45458        0.02073
C          6.07085        1.96149        0.89019
C          1.24561        5.94770        0.33892
C          7.58698        1.76751        1.09249
C          0.62551        6.42044        1.66554
C          8.37623        3.03486        1.46462
C          0.62836        7.94917        1.84495
C          9.88698        2.78862        1.62062
C         -0.01056        8.46233        3.15255
C         10.73808        4.04522        1.88544
C          0.81718        8.23243        4.42996
C         10.44764        4.80883        3.19140
C          0.11080        8.72809        5.70405
C         10.67603        4.00380        4.48273
C          0.93878        8.75271        7.00327
C         10.50969        4.82897        5.77193
C          1.43755        7.39499        7.54813
C         10.69462        4.02119        7.06918
C          2.81693        6.93823        7.04161
C         10.54266        4.84979        8.35527
C          3.30517        5.61729        7.65827
C         10.71292        4.02741        9.63943
C          4.70178        5.18994        7.18706
H          3.41700        1.36059        1.64490
H          3.30133        2.48474        3.01124
H          3.59956        3.31751        0.04325
H          3.55792        4.44368        1.41551
H          1.24185        3.61033        2.02536
H          1.31585        2.42659        0.71365
H          5.54598        1.62142        2.96542
H          5.63014        3.33873        2.52808
H          1.42746        4.25250       -1.00142
H         -0.05867        4.25719       -0.03585
H          5.65051        1.01224        0.48824
H          5.90241        2.72482        0.09642
H          0.80383        6.53757       -0.49532
H          2.33257        6.19218        0.32666
H          7.75277        0.99331        1.87853
H          8.01545        1.33824        0.15889
H          1.15749        5.94004        2.51772
H         -0.42645        6.05341        1.72340
H          7.96998        3.45722        2.41077
H          8.20933        3.81725        0.68733
H          0.08753        8.40566        0.98567
H          1.67316        8.33317        1.77138
H         10.05501        2.04557        2.43386
H         10.27070        2.29706        0.69809
H         -0.19725        9.55447        3.04867
H         -1.01814        7.99996        3.27517
H         11.80964        3.74337        1.87929
H         10.61911        4.74822        1.03089
H          1.79639        8.75497        4.32582
H          1.05897        7.15099        4.53203
H          9.40151        5.19257        3.17947
H         11.09320        5.71484        3.21029
H         -0.25351        9.76459        5.52214
H         -0.80918        8.11985        5.87026
H         11.69575        3.55233        4.46075
H          9.96981        3.14300        4.51384
H          1.80824        9.43947        6.87486
H          0.30526        9.22717        7.78217
H          9.49665        5.29557        5.77890
H         11.23062        5.67966        5.76264
H          1.48454        7.45740        8.65840
H          0.67648        6.60754        7.33580
H          9.95582        3.18598        7.08739
H         11.69672        3.53153        7.06430
H          2.80343        6.84202        5.93297
H          3.56031        7.74037        7.25995
H         11.28117        5.68402        8.34618
H          9.54071        5.33765        8.35905
H          3.30462        5.70975        8.76922
H          2.57114        4.81109        7.42800
H         10.59503        4.65741       10.54438
H         11.71693        3.55347        9.68997
H          9.96033        3.21196        9.70043
H          5.01915        4.24183        7.66621
H          5.46525        5.95907        7.43351
H          4.73611        5.03267        6.08727
