20
N-HEXANE.gamout	Energy:    -236.8941452
C          3.08422        1.08852        1.94161
C          2.98132        1.47553        3.42416
C          3.93246        0.69354        4.34406
C          2.11602        1.85344        1.02520
C          3.82787        1.08931        5.82174
C          2.22832        1.46596       -0.45412
H          2.90554       -0.00665        1.83172
H          4.12935        1.25438        1.58930
H          3.18069        2.56714        3.53395
H          1.93210        1.32997        3.77324
H          3.73304       -0.39689        4.23317
H          4.97957        0.84008        3.99217
H          1.07238        1.68651        1.37816
H          2.29527        2.94716        1.13878
H          4.50896        0.48628        6.45768
H          4.08892        2.15877        5.97376
H          2.79617        0.94569        6.20955
H          2.04453        0.38026       -0.60451
H          1.49603        2.01737       -1.07992
H          3.24145        1.68488       -0.85526
