22
N-HEXYLAMINE.gamout	Energy:    -292.1985885
C         35.00460       10.03491        0.00642
C         36.30309        9.21268        0.01043
C         36.07942        7.69407        0.01620
C         35.23114       11.55480       -0.00497
C         37.37873        6.87744        0.02806
C         33.93393       12.37307       -0.01038
N         37.09692        5.43940       -0.02090
H         34.39054        9.74628       -0.87788
H         34.39204        9.75995        0.89646
H         36.91633        9.50258        0.89518
H         36.91365        9.49149       -0.87966
H         35.48213        7.38453       -0.86988
H         35.46766        7.41398        0.90629
H         35.84716       11.83881        0.87876
H         35.84499       11.82522       -0.89444
H         37.99876        7.20789        0.90503
H         37.97402        7.14179       -0.87537
H         34.13653       13.46439       -0.01907
H         33.31257       12.14279       -0.90254
H         33.31289       12.15723        0.88571
H         37.97908        4.90955       -0.04451
H         36.63163        5.15134        0.85244
