33
N-HEPTYLBENZENE.gamout	Energy:    -507.0582305
C          6.32006        2.47182        3.14346
C          4.97760        3.17895        3.40193
C          3.97733        3.14253        2.23466
C          2.61657        3.77987        2.56324
C          1.60507        3.74353        1.40637
C          0.25010        4.37456        1.75089
C          7.21558        3.13159        2.07097
C          8.54077        2.41872        1.89509
C          8.69436        1.38432        0.94960
C          9.90861        0.69083        0.82545
C         10.99866        1.02124        1.64615
C         10.86225        2.05178        2.58990
C          9.64576        2.74007        2.71002
H          6.89128        2.42140        4.09593
H          6.13741        1.41200        2.85254
H          4.50631        2.70678        4.29306
H          5.16726        4.23834        3.69397
H          4.41219        3.65400        1.34584
H          3.81897        2.08387        1.92188
H          2.17661        3.26554        3.44965
H          2.77108        4.83721        2.88236
H          2.04101        4.26029        0.52071
H          1.45119        2.68744        1.08609
H          0.35891        5.44338        2.03492
H         -0.44979        4.32752        0.89166
H         -0.23560        3.85428        2.60434
H          6.68013        3.15582        1.09758
H          7.40118        4.19165        2.35316
H          7.84654        1.11989        0.29732
H         10.00518       -0.11181        0.07858
H         11.95276        0.48139        1.54846
H         11.71157        2.32353        3.23520
H          9.54907        3.55036        3.45005
