48
N-HEXADECYLNITRILE.gamout	Energy:    -682.6101962
C        155.98242       10.02468        0.00153
C        154.69396        9.18203        0.00114
C        154.93609        7.66187        0.00157
C        155.74240       11.54525        0.00085
C        153.64688        6.82013        0.00091
C        157.03299       12.38544        0.00092
C        153.88690        5.29949        0.00106
C        156.80000       13.90740        0.00015
C        152.59352        4.46332        0.00015
C        158.09485       14.74153       -0.00000
C        152.83259        2.94481        0.00002
C        157.87210       16.26397       -0.00082
C        151.51149        2.13817       -0.00118
C        159.17191       17.08692       -0.00110
C        151.71344        0.68543       -0.00152
C        158.94369       18.60355       -0.00185
N        151.89718       -0.47215       -0.00185
H        156.59894        9.75034        0.88918
H        156.59974        9.74974       -0.88538
H        154.07731        9.45566       -0.88665
H        154.07634        9.45611        0.88811
H        155.55238        7.38768        0.88930
H        155.55331        7.38738       -0.88544
H        155.12600       11.81968       -0.88688
H        155.12534       11.82049        0.88788
H        153.03074        7.09455       -0.88694
H        153.02958        7.09455        0.88795
H        157.64883       12.10885        0.88842
H        157.64941       12.10812       -0.88595
H        154.50103        5.02238        0.88898
H        154.50208        5.02236       -0.88613
H        156.18488       14.18498       -0.88750
H        156.18449       14.18592        0.88723
H        151.97863        4.73819       -0.88814
H        151.97737        4.73785        0.88769
H        158.70946       14.46190        0.88742
H        158.70985       14.46107       -0.88690
H        153.43240        2.65040        0.88873
H        153.43364        2.65078       -0.88799
H        157.25993       16.54815       -0.88857
H        157.25971       16.54915        0.88645
H        150.89730        2.40340       -0.89063
H        150.89583        2.40279        0.88745
H        159.78333       16.80261        0.88589
H        159.78354       16.80176       -0.88768
H        159.90417       19.15881       -0.00202
H        158.37092       18.92957       -0.89662
H        158.37074       18.93047        0.89247
