30
N-HEXYLBENZENE.gamout	Energy:    -467.7766139
C          4.97804        3.00581        0.92214
C          3.68552        3.31461        0.14968
C          2.50549        3.73377        1.04277
C          1.20479        4.01729        0.27361
C          0.03469        4.43400        1.17385
C          6.16039        2.58432        0.01942
C          7.42156        2.26573        0.79641
C          7.70424        0.94812        1.21088
C          8.85038        0.65630        1.96688
C          9.73982        1.68251        2.32382
C          9.47293        2.99943        1.91637
C          8.32601        3.28458        1.15966
H          5.28221        3.89475        1.52023
H          4.78908        2.19743        1.66458
H          3.88463        4.11845       -0.59715
H          3.39384        2.41920       -0.44757
H          2.31682        2.93728        1.80000
H          2.79038        4.63986        1.62683
H          1.39286        4.81352       -0.48281
H          0.92115        3.11178       -0.31030
H          0.27029        5.35855        1.74344
H         -0.88179        4.63336        0.58141
H         -0.21281        3.64272        1.91388
H          5.86350        1.69399       -0.57688
H          6.36906        3.39633       -0.71166
H          7.01431        0.13483        0.93334
H          9.05207       -0.38094        2.27595
H         10.64056        1.45602        2.91423
H         10.16554        3.81182        2.18482
H          8.12916        4.32127        0.84210
