65
N-HENEICOSANE.gamout	Energy:    -826.1360622
C          6.25691        4.61047        3.67160
C          5.28810        5.33318        2.71821
C          3.86063        5.48696        3.27360
C          7.68234        4.43665        3.11666
C          2.87708        6.18387        2.31596
C          8.63844        3.68655        4.06236
C          1.44884        6.32065        2.87448
C         10.06081        3.49432        3.50500
C          0.45198        6.99847        1.91649
C         11.00759        2.72040        4.44149
C         -0.97493        7.12342        2.48167
C         12.42629        2.51509        3.87909
C         -1.98253        7.79057        1.52756
C         13.36841        1.72373        4.80567
C         -3.40628        7.90896        2.10185
C         14.78267        1.51062        4.23831
C         -4.42308        8.57240        1.15668
C         15.71883        0.70958        5.15865
C         -5.83981        8.68623        1.74337
C         17.12336        0.50136        4.57935
C         -6.85032        9.35074        0.80041
H          6.30471        5.16018        4.64053
H          5.83757        3.60706        3.91846
H          5.69542        6.33930        2.46278
H          5.24739        4.77758        1.75204
H          3.90058        6.04706        4.23696
H          3.46017        4.47847        3.53104
H          7.63191        3.89235        2.14458
H          8.10766        5.43815        2.87268
H          2.84326        5.61886        1.35499
H          3.26760        7.19412        2.05045
H          8.20172        2.68820        4.29953
H          8.69579        4.22505        5.03712
H          1.48381        6.88856        3.83346
H          1.06355        5.30862        3.14115
H         10.50236        4.49128        3.27151
H         10.00064        2.96075        2.52752
H          0.42008        6.42748        0.95912
H          0.82953        8.01173        1.64356
H         11.07404        3.24869        5.42135
H         10.55764        1.72602        4.67048
H         -0.94015        7.69547        3.43819
H         -1.34952        6.10913        2.75500
H         12.35701        1.99087        2.89711
H         12.87923        3.50878        3.65355
H         -2.01714        7.21717        0.57185
H         -1.61294        8.80563        1.25033
H         12.91076        0.73155        5.02881
H         13.44300        2.24389        5.78937
H         -3.36778        8.48190        3.05771
H         -3.77484        6.89339        2.37878
H         14.70890        0.99186        3.25362
H         15.24515        2.50131        4.01832
H         -4.06040        9.58965        0.87761
H         -4.46680        8.00045        0.20036
H         15.79643        1.22531        6.14342
H         15.25636       -0.28026        5.37755
H         -5.79378        9.25669        2.69932
H         -6.20375        7.67016        2.02091
H         17.08913       -0.04811        3.61391
H         17.63280        1.47057        4.38871
H         17.76582       -0.08120        5.27074
H         -6.95681        8.78503       -0.15039
H         -6.54118       10.38473        0.53452
H         -7.85633        9.41409        1.26345
