60
N-HEXADECYLBENZENE.gamout	Energy:    -860.6046350
C         -0.51563       -0.97984        0.93903
C         -0.21654       -0.49724       -0.49259
C         -1.30474       -2.29979        1.01236
C          0.55132        0.83585       -0.55732
C         -1.58514       -2.78608        2.44659
C          0.86915        1.31854       -1.98527
C         -2.39057       -4.09605        2.52641
C          1.61098        2.66745       -2.04159
C         -2.65500       -4.58901        3.96162
C          1.94475        3.15249       -3.46562
C         -3.47100       -5.89232        4.04398
C          2.65476        4.51689       -3.51223
C         -3.72127       -6.39544        5.47702
C          2.98111        5.00604       -4.94329
C         -4.53897       -7.69540        5.55382
C          3.67748        6.35151       -4.96824
C         -4.77006       -8.19800        6.98514
C          5.08275        6.44590       -4.90259
C          2.93354        7.54848       -5.01493
C          5.72438        7.69404       -4.88076
C          3.56937        8.79903       -4.99270
C          4.96953        8.87729       -4.92517
H         -1.07804       -0.18569        1.48375
H          0.44475       -1.09586        1.49318
H         -1.17391       -0.39831       -1.05501
H          0.36496       -1.28280       -1.02953
H         -2.27087       -2.18160        0.46873
H         -0.74714       -3.09172        0.45957
H         -0.03515        1.62199       -0.02659
H          1.50283        0.73843        0.01526
H         -2.12694       -1.98720        3.00513
H         -0.61682       -2.91791        2.98338
H          1.47696        0.54263       -2.50679
H         -0.07844        1.39600       -2.56721
H         -3.36384       -3.96202        1.99913
H         -1.85276       -4.89159        1.95930
H          0.99880        3.44349       -1.52567
H          2.55400        2.59275       -1.45215
H         -3.18184       -3.78916        4.53294
H         -1.68052       -4.73300        4.48416
H          1.00691        3.20666       -4.06582
H          2.58054        2.39063       -3.97415
H         -4.45023       -5.74590        3.53104
H         -2.94829       -6.68841        3.46359
H          2.02663        5.28575       -3.00749
H          3.59935        4.47178       -2.92440
H         -4.24136       -5.60068        6.06176
H         -2.74256       -6.54786        5.98962
H          3.61813        4.24912       -5.45198
H          2.03812        5.06719       -5.52940
H         -5.52081       -7.54046        5.05024
H         -4.02331       -8.48604        4.96166
H         -5.35958       -9.13709        6.99302
H         -5.32259       -7.45146        7.59533
H         -3.80817       -8.40229        7.50284
H          5.68635        5.52435       -4.86988
H          1.83413        7.49947       -5.07450
H          6.82331        7.74249       -4.83340
H          2.96746        9.71987       -5.03416
H          5.46982        9.85741       -4.91116
