63
N-HEXADECYLCYCLOPENTANE.gamout	Energy:    -824.9151483
C          1.64849        0.66683        4.57297
C          0.35230        0.55780        5.40717
C          2.20396        2.09735        4.84731
C         -0.14721        2.00783        5.47923
C          1.13954        2.83000        5.71783
C          0.96501        4.33967        5.47078
C          2.06049        5.27918        6.01769
C          7.97118        5.34240        4.34722
C          6.63798        5.19632        5.10817
C          8.95735        6.35148        4.96116
C          5.73227        6.43861        5.05496
C          4.40309        6.31726        5.82607
C          3.40413        5.28859        5.26741
C         13.62690        6.48354        0.93015
C         12.34403        6.17252        1.72783
C         14.77803        7.13479        1.73120
C         11.52316        7.41469        2.11410
C         10.18080        7.12171        2.81142
C         10.29602        6.49498        4.21141
C         15.36583        5.13277        3.29236
C         15.84662        6.16495        2.26657
H          2.37696       -0.13320        4.81724
H          1.41040        0.55124        3.49396
H         -0.38736       -0.14068        4.96734
H          0.57872        0.19064        6.43282
H          2.35839        2.64482        3.89351
H          3.19024        2.06645        5.35325
H         -0.60930        2.30042        4.50746
H         -0.91140        2.17468        6.26594
H          1.41432        2.69231        6.79058
H          0.82915        4.51583        4.37721
H          0.00335        4.64215        5.93995
H          2.23836        5.03737        7.09166
H          1.65204        6.31530        6.01341
H          7.75199        5.62380        3.29162
H          8.46728        4.34717        4.29365
H          6.08954        4.32282        4.69194
H          6.84629        4.93949        6.17374
H          8.47649        7.35443        5.02653
H          9.16396        6.04922        6.01274
H          6.28809        7.31316        5.45839
H          5.51932        6.68747        3.98867
H          4.62136        6.07755        6.89340
H          3.91531        7.31809        5.84211
H          3.21740        5.50996        4.19061
H          3.85853        4.27497        5.29380
H         13.35353        7.14494        0.07869
H         13.99934        5.54457        0.46249
H         12.60714        5.59313        2.63979
H         11.70268        5.49807        1.11703
H         14.35925        7.73127        2.57451
H         15.29419        7.87638        1.08522
H         12.13176        8.08235        2.76742
H         11.31944        8.00584        1.19245
H          9.56532        6.46492        2.15501
H          9.61463        8.07642        2.89752
H         10.97655        7.12457        4.82806
H         10.79010        5.49885        4.14115
H         16.21186        4.52138        3.66872
H         14.62260        4.42858        2.86264
H         14.89293        5.62166        4.17129
H         16.31345        5.63581        1.40345
H         16.66482        6.76828        2.71885
