23
N-METHYLCYCLOHEXYLAMINE.gamout	Energy:    -330.2796237
C         -3.86431        1.13560        1.15871
C         -5.23940        1.81429        1.27738
C         -3.88869        0.00413        0.11607
C         -5.74656        2.30593       -0.09029
C         -5.78554        1.17189       -1.14702
C         -4.40554        0.49336       -1.24763
N         -6.23750        1.57119       -2.48286
C         -7.62345        2.00522       -2.58900
H         -3.53572        0.74635        2.14690
H         -3.10749        1.89683        0.85770
H         -5.97230        1.08651        1.69736
H         -5.19928        2.65830        2.00023
H         -2.87774       -0.44464        0.00505
H         -4.55033       -0.81474        0.48244
H         -6.75236        2.76719        0.01492
H         -5.06981        3.10884       -0.46959
H         -6.51314        0.40322       -0.78740
H         -3.68284        1.23016       -1.67380
H         -4.46648       -0.33929       -1.98006
H         -5.60962        2.30131       -2.84712
H         -7.85992        2.24693       -3.64668
H         -8.29779        1.17345       -2.28829
H         -7.91246        2.89647       -1.97170
