17
N-METHYLPYRROLIDINE.gamout	Energy:    -251.7019281
C          2.13873       -0.04970        0.04778
N          0.71725       -0.02272        0.31642
C          0.01293        1.16353       -0.16377
C         -1.48180        0.81121        0.02278
C         -1.50949       -0.74801        0.05094
C         -0.04379       -1.15281       -0.20897
H          2.63988        0.81154        0.53849
H          2.58905       -0.97841        0.45742
H          2.38729       -0.00689       -1.05035
H          0.32943        2.06972        0.39726
H          0.23156        1.35998       -1.25257
H         -1.86937        1.22807        0.97419
H         -2.10082        1.23442       -0.79407
H         -1.83543       -1.11279        1.04596
H         -2.19844       -1.18251       -0.70129
H          0.13136       -1.29736       -1.31409
H          0.25305       -2.09898        0.29364
