17
N-METHYLANILINE.gamout	Energy:    -326.6729268
C          6.65372        4.22687       -1.35481
N          7.11637        2.94428       -0.87461
C          6.27700        1.86498       -0.64304
C          6.83274        0.58803       -0.35067
C          4.86190        1.98960       -0.65978
C          6.00771       -0.50850       -0.07598
C          4.60506       -0.37531       -0.08081
C          4.04798        0.88026       -0.37494
H          7.51611        4.91744       -1.43394
H          6.15286        4.18041       -2.35371
H          5.93189        4.68549       -0.64344
H          8.08952        2.70845       -1.06905
H          7.92968        0.47050       -0.33507
H          4.39450        2.95845       -0.88928
H          6.46843       -1.48482        0.14656
H          3.95914       -1.23979        0.13631
H          2.95286        1.00531       -0.39133
