21
N-METHYLDIETHANOLAMINE.gamout	Energy:    -403.2116687
O          3.29984       -1.41263       -0.64349
O         -2.43442        2.64140       -0.63114
N         -0.09378       -0.13350        0.07811
C          1.36296       -0.18369       -0.03057
C         -0.62636        1.22339       -0.03583
C         -0.58392       -0.82156        1.26808
C          1.89689       -1.55366       -0.46088
C         -2.09265        1.26998       -0.47623
H          1.68714        0.54139       -0.80612
H          1.87858        0.12028        0.92150
H         -0.04313        1.77024       -0.80611
H         -0.51965        1.81062        0.91718
H         -0.25515       -0.32742        2.22410
H         -1.69178       -0.85839        1.27344
H         -0.22268       -1.86924        1.29114
H          1.36705       -1.85902       -1.39760
H          1.66313       -2.32784        0.31254
H         -2.19464        0.68929       -1.42674
H         -2.74533        0.77046        0.28287
H          3.65282       -2.28187       -0.90445
H         -3.37240        2.68571       -0.88913
