12
N-METHYLACETAMIDE.gamout	Energy:    -248.3422672
C          1.97636        0.11636        0.00000
N          0.64287        0.69373       -0.00000
C         -0.47473       -0.10710        0.00000
C         -1.81405        0.62879        0.00000
O         -0.39296       -1.33482       -0.00000
H          2.73011        0.92656       -0.00000
H          2.13769       -0.52552        0.89270
H          2.13769       -0.52552       -0.89270
H          0.53732        1.70837       -0.00000
H         -1.73039        1.73444        0.00000
H         -2.39385        0.31245       -0.89051
H         -2.39385        0.31245        0.89051
