16
N-METHYLPYRROLIDONE.gamout	Energy:    -325.7069178
O         -2.31622        0.54521       -0.33962
N         -0.28192       -0.57667       -0.28606
C          1.09265        1.01195        0.78471
C          1.12630       -0.30210       -0.03331
C         -0.22068        1.68400        0.35003
C         -1.11056        0.52167       -0.11858
C         -0.75164       -1.81602       -0.86258
H          1.05670        0.77278        1.86809
H          1.99187        1.63596        0.61226
H          1.68773       -0.18305       -0.99372
H          1.60485       -1.14008        0.52045
H         -0.08033        2.37055       -0.51470
H         -0.73076        2.26756        1.14113
H         -0.52046       -2.68418       -0.20651
H         -0.29355       -2.00437       -1.86067
H         -1.84998       -1.72746       -0.98113
