9
N-METHYLFORMAMIDE.gamout	Energy:    -209.0508502
C         -1.49071        0.48984        0.00000
N         -0.57981       -0.64534        0.00000
C          0.77798       -0.48148        0.00000
O          1.34778        0.60208       -0.00000
H         -1.33710        1.12980       -0.89507
H         -2.53432        0.12247       -0.00000
H         -1.33711        1.12980        0.89507
H         -0.95610       -1.59524       -0.00000
H          1.32052       -1.47309       -0.00000
