44
N-MYRISTIC_ACID.gamout	Energy:    -700.3152333
C          5.65373        1.11757       -0.32302
C          6.91782        0.25078       -0.18130
C          5.91383        2.63319       -0.26247
C          6.64790       -1.26392       -0.23623
C          4.64090        3.48943       -0.38996
C          7.90654       -2.13750       -0.08745
C          4.89865        5.00459       -0.37105
C          7.62826       -3.65180       -0.11042
C          3.61450        5.83998       -0.46101
C          8.88359       -4.52886        0.04690
C          3.87320        7.31861       -0.68861
C          8.60048       -6.04150        0.06197
C          9.85362       -6.91556        0.23197
C          9.55598       -8.41987        0.26943
H          5.15004        0.87219       -1.28685
H          4.92488        0.83782        0.47341
H          7.42840        0.49945        0.77795
H          7.64230        0.52344       -0.98397
H          6.42860        2.88357        0.69388
H          6.62867        2.91669       -1.06955
H          6.14339       -1.51084       -1.19925
H          5.91587       -1.53378        0.56074
H          4.11476        3.22220       -1.33604
H          3.93461        3.22076        0.43013
H          8.42577       -1.87463        0.86345
H          8.62712       -1.88452       -0.90013
H          5.45256        5.28131        0.55390
H          5.56156        5.29611       -1.21425
H          7.11452       -3.91638       -1.06387
H          6.90141       -3.90076        0.69801
H          3.00014        5.49327       -1.32492
H          2.96327        5.72359        0.43042
H          9.41317       -4.24739        0.98678
H          9.59809       -4.29844       -0.77785
H          8.08047       -6.32943       -0.88148
H          7.87929       -6.27100        0.88130
H         10.38402       -6.61859        1.16568
H         10.56711       -6.69996       -0.59645
H         10.48300       -9.01564        0.39485
H          9.06446       -8.76161       -0.66704
H          8.87653       -8.67943        1.10995
O          4.85472        7.79725       -1.22724
O          2.84335        8.08501       -0.23316
H          3.08334        9.00925       -0.46878
