29
N-NONANOIC_ACID.gamout	Energy:    -503.9001564
C          0.53154        0.71824        0.79492
C          1.58221        1.83253        0.86561
C          3.01784        1.31704        1.05554
C          4.07490        2.42826        1.13502
C          5.51005        1.91387        1.32473
C          6.56410        3.02788        1.41062
O         11.08717        3.48662        2.92532
C         10.45478        3.07397        1.79156
C          9.04753        3.63035        1.67495
O         10.97902        2.32569        0.98601
C          7.99641        2.50650        1.59191
H         -0.49223        1.12527        0.66055
H          0.72846        0.02571       -0.05180
H          0.52866        0.10782        1.72344
H          1.53711        2.45205       -0.05910
H          1.33409        2.52862        1.69973
H          3.06616        0.69676        1.98067
H          3.27110        0.62237        0.22058
H          4.02700        3.05086        0.21166
H          3.81958        3.12009        1.97161
H          5.56024        1.28971        2.24673
H          5.76713        1.22541        0.48644
H          6.51663        3.65558        0.49076
H          6.30905        3.71384        2.25173
H         11.97484        3.06239        2.89669
H          9.01815        4.22745        0.73676
H          8.84299        4.32162        2.51743
H          8.05501        1.88176        2.51157
H          8.26722        1.83466        0.74816
