59
N-NONADECANE.gamout	Energy:    -747.5703275
C          8.45726        0.33672        3.29862
C          7.65189        0.93633        4.46504
C          6.13471        1.02036        4.21854
C          9.97277        0.26529        3.55896
C          5.34419        1.62343        5.39354
C         10.79346       -0.32721        2.39939
C          3.82478        1.71588        5.16235
C         12.30829       -0.38426        2.66954
C          3.04645        2.31868        6.34610
C         13.14178       -0.96751        1.51409
C          1.52514        2.41510        6.12825
C         14.65584       -1.01025        1.79108
C          0.75594        3.01513        7.31936
C         15.49967       -1.58409        0.63965
C         -0.76572        3.11306        7.11278
C         17.01055       -1.61463        0.92444
C         -1.52480        3.71011        8.30902
C         17.84668       -2.18384       -0.22852
C         -3.04054        3.80321        8.09478
H          8.27020        0.93573        2.37676
H          8.07305       -0.68490        3.07042
H          8.04066        1.95665        4.69178
H          7.84173        0.33664        5.38592
H          5.74112        0.00173        3.99290
H          5.94350        1.62169        3.29906
H         10.15943       -0.33185        4.48212
H         10.35002        1.28938        3.78825
H          5.53959        1.02058        6.31122
H          5.74166        2.64080        5.61861
H         10.42077       -1.35235        2.16790
H         10.60777        0.27022        1.47617
H          3.62698        2.32004        4.24612
H          3.42458        0.69937        4.93845
H         12.67373        0.64346        2.90178
H         12.49520       -0.98010        3.59352
H          3.24832        1.71266        7.26033
H          3.44899        3.33424        6.57055
H         12.95499       -0.37102        0.59049
H         12.78073       -1.99617        1.27959
H          1.12150        1.39983        5.90472
H          1.32067        3.02225        5.21543
H         15.01102        0.02043        2.02607
H         14.84440       -1.60563        2.71503
H          0.96339        2.40651        8.23063
H          1.16054        4.02989        7.54382
H         15.31442       -0.98881       -0.28521
H         15.15093       -2.61645        0.40204
H         -0.97822        3.72374        6.20398
H         -1.17392        2.09920        6.89026
H         17.19733       -2.20928        1.84816
H         17.35682       -0.58250        1.16203
H         -1.11774        4.72320        8.53222
H         -1.31305        3.09978        9.21700
H         17.71742       -1.58867       -1.15822
H         18.92852       -2.18664        0.01656
H         17.55538       -3.23002       -0.46485
H         -3.28972        4.44071        7.21909
H         -3.48804        2.80254        7.91076
H         -3.54996        4.23797        8.97870
