29
N-NONANE.gamout	Energy:    -354.7428560
C          6.83690        0.88109        1.57704
C          5.81954        1.92631        2.05902
C          4.44300        1.82501        1.38413
C          8.20379        0.97529        2.27245
C          3.43770        2.88495        1.85919
C          9.23276       -0.05490        1.78118
C          2.04777        2.77122        1.21430
C         10.58919        0.04339        2.49096
C          1.05992        3.84489        1.68740
H          6.97866        0.98470        0.47621
H          6.41448       -0.13962        1.72702
H          6.23557        2.94690        1.89028
H          5.69700        1.83791        3.16357
H          4.01733        0.80957        1.55880
H          4.57045        1.90692        0.27967
H          8.06698        0.86263        3.37324
H          8.61721        2.00119        2.13041
H          3.85320        3.90018        1.65834
H          3.33620        2.82381        2.96801
H          9.37721        0.06830        0.68346
H          8.81483       -1.07929        1.91208
H          1.62742        1.76033        1.42119
H          2.15502        2.82522        0.10659
H         11.04532        1.04669        2.34963
H         11.30974       -0.70830        2.10689
H         10.48567       -0.11943        3.58523
H          0.06420        3.72727        1.21172
H          1.42779        4.86556        1.44669
H          0.91282        3.80098        2.78799
