29
N-OCTYL_FORMATE.gamout	Energy:    -503.8748985
C          0.49872       18.89305        0.57747
O          0.74740       19.66117       -0.51397
O          0.66666       17.70010        0.59451
C          0.56535       21.08477       -0.39423
C          1.90425       21.80676       -0.25111
C          1.76002       23.33582       -0.22679
C          3.09914       24.07674       -0.08971
C          5.49519       28.62160        0.22356
C          4.15935       27.88162        0.08588
C          4.29861       26.35136        0.06518
C          2.96212       25.60640       -0.07022
H          0.10798       19.50167        1.44673
H          0.03693       21.40708       -1.31608
H         -0.10428       21.30746        0.47019
H          2.40713       21.45607        0.67830
H          2.56089       21.49703       -1.09376
H          1.24784       23.67315       -1.15761
H          1.08770       23.63616        0.61008
H          3.61285       23.74016        0.84032
H          3.77040       23.77565       -0.92669
H          5.35439       29.72230        0.23750
H          6.01818       28.34077        1.16288
H          6.18156       28.38493       -0.61776
H          3.64102       28.21267       -0.84304
H          3.48492       28.17430        0.92300
H          4.81433       26.01688        0.99547
H          4.97256       26.05347       -0.77150
H          2.44633       25.94081       -1.00031
H          2.28929       25.90569        0.76684
