26
N-OCTANE.gamout	Energy:    -315.4598812
C          3.85772        2.38338        1.67048
C          2.82899        3.04089        2.60292
C          1.36815        2.74087        2.23610
C          5.31823        2.66859        2.05081
C          0.34039        3.41039        3.16216
C          6.34862        2.02315        1.11086
C         -1.11550        3.09321        2.80073
C          7.80382        2.30257        1.50554
H          3.67538        2.72344        0.62424
H          3.69003        1.28120        1.65776
H          2.98944        4.14423        2.60751
H          3.02004        2.70930        3.65038
H          1.20588        1.63766        2.24548
H          1.17695        3.05966        1.18455
H          5.50240        2.31690        3.09308
H          5.48477        3.77090        2.07630
H          0.49877        4.51311        3.14532
H          0.54130        3.09799        4.21278
H          6.16815        2.38220        0.07158
H          6.17431        0.92318        1.07942
H         -1.82853        3.59560        3.48715
H         -1.35918        3.42322        1.76775
H         -1.31638        2.00142        2.85175
H          8.02982        1.91716        2.52325
H          8.51929        1.82653        0.80305
H          8.01923        3.39273        1.51306
