26
N-OCTANOIC_ACID.gamout	Energy:    -464.6172988
C          5.00962        1.40743        0.99354
C          3.74028        0.76515        1.57058
C          2.45684        1.19310        0.83254
C          6.29713        0.99273        1.72191
C          1.21640        0.57863        1.45436
C          7.57011        1.63306        1.14787
O          0.51349       -0.18055        0.56776
O          0.86994        0.71579        2.61407
C          8.85970        1.21958        1.87499
C         10.12589        1.86313        1.29727
H          5.09717        1.14738       -0.08680
H          4.90765        2.51700        1.02553
H          3.62912        1.02704        2.64535
H          3.83288       -0.34376        1.53274
H          2.50231        0.93859       -0.24556
H          2.34172        2.29678        0.91209
H          6.20742        1.25238        2.80208
H          6.39660       -0.11702        1.69030
H          7.65792        1.37334        0.06702
H          7.47072        2.74313        1.17884
H         -0.25492       -0.52824        1.07512
H          8.76665        1.47905        2.95441
H          8.95544        0.11014        1.84414
H         10.07648        2.97213        1.34924
H         11.03637        1.54426        1.84604
H         10.26818        1.59131        0.22914
