86
N-OCTACOSANE.gamout	Energy:   -1101.0975683
C          5.28084        3.67568       11.54322
C          5.22128        5.16862       11.16995
C          5.44785        5.54500        9.69428
C          6.65654        2.98790       11.40417
C          4.45410        4.94095        8.68526
C          6.97130        2.38385       10.02487
C          2.98862        5.34450        8.91123
C          8.35569        1.71679        9.90620
C          2.01293        4.90499        7.80233
C          8.54772        0.45232       10.76245
C          1.83744        3.38540        7.64844
C          9.87682       -0.30470       10.54724
C          0.73068        2.96153        6.66372
C         11.08248        0.13826       11.39911
C          0.93032        3.36067        5.18866
C         11.66973        1.53210       11.11496
C          2.15344        2.72616        4.50819
C         12.95213        1.83785       11.91087
C          2.33581        3.08379        3.01938
C         13.56164        3.22503       11.62939
C          1.26359        2.51936        2.07004
C         14.83467        3.53644       12.43923
C          1.50778        2.83757        0.58464
C         15.45506        4.91566       12.14880
C          0.44726        2.25982       -0.36752
C         16.72333        5.22108       12.96240
C          0.70168        2.58200       -1.84507
C         17.33920        6.59252       12.65864
H          4.51911        3.10334       10.96516
H          4.95453        3.59470       12.60195
H          4.23290        5.56358       11.49294
H          5.96873        5.71570       11.78710
H          6.48108        5.26697        9.39169
H          5.40853        6.65506        9.61559
H          6.71849        2.17998       12.16512
H          7.45675        3.71433       11.68073
H          4.54043        3.83147        8.69339
H          4.76418        5.25471        7.66357
H          6.89833        3.17466        9.24781
H          6.18023        1.64062        9.76728
H          2.93327        6.45224        9.01302
H          2.63540        4.93505        9.88546
H          8.52453        1.44298        8.84081
H          9.14115        2.46826       10.14738
H          2.34536        5.34543        6.83420
H          1.01607        5.35678        8.00962
H          7.70639       -0.24099       10.53604
H          8.44179        0.69783       11.84406
H          2.80295        2.92006        7.34845
H          1.59585        2.95034        8.64453
H         10.15242       -0.27376        9.46680
H          9.70027       -1.37796       10.77255
H          0.61153        1.85568        6.72013
H         -0.23831        3.38446        7.01338
H         11.89024       -0.61436       11.25398
H         10.80804        0.06946       12.47793
H          0.00973        3.07576        4.63457
H          0.99590        4.46976        5.10033
H         10.91146        2.31574       11.33978
H         11.88159        1.62344       10.02383
H          3.07377        3.03203        5.05251
H          2.09675        1.61698        4.61572
H         12.73753        1.74827       13.00182
H         13.71368        1.05221       11.69440
H          2.37947        4.19315        2.90940
H          3.33250        2.71360        2.68988
H         12.79526        4.00920       11.83338
H         13.79056        3.31014       10.54109
H          0.25912        2.90360        2.36099
H          1.21032        1.41287        2.20273
H         15.59637        2.74574       12.24285
H         14.60414        3.46198       13.52796
H          1.55721        3.94366        0.44746
H          2.51259        2.45671        0.28507
H         15.69220        4.99033       11.06137
H         14.69529        5.70919       12.34173
H          0.39793        1.15445       -0.23350
H         -0.55790        2.63997       -0.07269
H         16.48801        5.15288       14.04954
H         17.48048        4.42585       12.77218
H          0.71349        3.67815       -2.02910
H          1.68013        2.18147       -2.18793
H         -0.08273        2.14541       -2.49645
H         18.25154        6.76933       13.26369
H         16.62848        7.41846       12.87770
H         17.62647        6.68296       11.58868
