32
N-OCTYL_ACETATE.gamout	Energy:    -543.1746889
C          8.38326        1.39266        1.27990
C          7.11498        1.84104        2.02275
C          9.62920        1.45403        2.15352
C          5.83445        1.74783        1.17571
O         10.76583        1.08660        1.34120
C          4.56455        2.23054        1.89875
C         11.94915        0.95864        1.99986
C          3.28090        2.11595        1.05919
C         13.05969        0.60253        1.03422
O         12.07037        1.11491        3.20081
C          2.01470        2.61429        1.77494
C          0.74126        2.49210        0.92803
H          8.26163        0.35207        0.90404
H          8.54639        2.02809        0.38073
H          7.24854        2.88971        2.37614
H          6.99033        1.22775        2.94521
H          9.79690        2.47463        2.56543
H          9.56785        0.76951        3.02765
H          5.96965        2.33638        0.23851
H          5.69110        0.69220        0.84679
H          4.70180        3.29120        2.21435
H          4.43718        1.65236        2.84361
H          3.13424        1.05322        0.75442
H          3.41024        2.68380        0.10820
H         12.83795       -0.36517        0.53972
H         14.01702        0.53590        1.57991
H         13.12821        1.36600        0.23314
H          2.15861        3.67732        2.07627
H          1.88522        2.04918        2.72633
H          0.82478        3.07437       -0.01477
H         -0.14856        2.86720        1.47371
H          0.53933        1.43598        0.64708
