39
N-OCTYLCYCLOPENTANE.gamout	Energy:    -510.6655502
C          0.08871        2.55768        1.71890
C          0.50581        2.35709        3.20796
C          1.40178        2.84651        0.96287
C          2.05845        2.33225        3.21444
C          2.47591        2.06795        1.75065
C          3.92578        2.43511        1.39926
C          5.00005        1.61675        2.13716
C          8.47378        3.44241        1.51241
C          7.00441        3.27224        1.93701
C          9.06524        4.83941        1.77441
C          6.44480        1.86451        1.66222
C         11.12335        6.37917        1.59563
C         10.53232        4.98713        1.33785
H         -0.38078        1.63170        1.32280
H         -0.65882        3.36619        1.58821
H          0.08735        1.41055        3.60911
H          0.11653        3.16557        3.86012
H          1.35565        2.56284       -0.10896
H          1.64262        3.93389        0.99984
H          2.46258        3.32217        3.52561
H          2.46688        1.58399        3.92286
H          2.32763        0.98049        1.53961
H          4.07166        2.30714        0.30201
H          4.07442        3.52251        1.59569
H          4.93770        1.80743        3.23288
H          4.77234        0.53447        2.00960
H          9.09769        2.67965        2.03473
H          8.56707        3.20424        0.42689
H          6.90477        3.49862        3.02446
H          6.38563        4.03672        1.41437
H          8.44969        5.60730        1.24999
H          8.98043        5.08125        2.85978
H          7.10921        1.11793        2.15266
H          6.51060        1.64749        0.57020
H         12.17930        6.43926        1.26051
H         10.55826        7.16876        1.05488
H         11.10225        6.63986        2.67573
H         10.61463        4.74437        0.25357
H         11.14878        4.21951        1.85963
