28
N-OCTYLAMINE.gamout	Energy:    -370.7642587
C         51.96695        0.02109       -0.00315
C         53.32313        0.74281       -0.01151
C         54.53362       -0.20406       -0.01307
C         50.75612        0.96720       -0.00164
C         55.88816        0.51810       -0.01440
C         49.39832        0.24743        0.00856
C         57.09562       -0.42869       -0.02698
C         48.19682        1.20123        0.01057
N         58.35353        0.32288        0.02858
H         51.90332       -0.65471       -0.88752
H         51.91090       -0.64703        0.88750
H         53.38799        1.41762        0.87310
H         53.37942        1.41163       -0.90156
H         54.46928       -0.87761       -0.89911
H         54.47398       -0.87355        0.87630
H         50.82058        1.64337        0.88246
H         50.81123        1.63561       -0.89233
H         55.97646        1.18277        0.87344
H         55.94734        1.19027       -0.90307
H         49.33559       -0.42823       -0.87492
H         49.34489       -0.41986        0.89898
H         56.99678       -1.11886       -0.90821
H         57.04667       -1.08242        0.87339
H         47.23333        0.65026        0.01870
H         48.20865        1.86486        0.90188
H         48.19846        1.85638       -0.88709
H         59.15048       -0.32816        0.04752
H         58.46752        0.86454       -0.84092
