23
N-OENANTHIC_ACID.gamout	Energy:    -425.3346661
C          6.44399        1.20208        1.29622
C          5.21831        1.21361        2.21299
C          3.89018        1.08441        1.45318
C          7.76218        1.33289        2.03799
C          2.65877        1.10060        2.37405
O          8.82144        1.31088        1.17994
O          7.89907        1.44593        3.24257
C          1.30676        0.91697        1.65913
C          0.92122        2.05746        0.70631
H          6.40230        2.02318        0.54509
H          6.49437        0.27029        0.68869
H          5.31485        0.39279        2.95694
H          5.22291        2.15148        2.81054
H          3.81530        1.90927        0.70868
H          3.89164        0.14176        0.85710
H          2.77442        0.29982        3.13880
H          2.64508        2.05881        2.94406
H          9.61868        1.40167        1.74848
H          0.51196        0.80469        2.42940
H          1.31830       -0.04629        1.09908
H          0.89555        3.03488        1.23481
H          1.63599        2.15664       -0.13760
H         -0.08305        1.89222        0.26345
