50
N-PALMITIC_ACID.gamout	Energy:    -778.8794262
C          5.22425        1.09556        0.22483
C          5.69332       -0.03038       -0.71479
C          4.50712        2.26250       -0.47684
C          6.34654       -1.21502        0.02037
C          4.07052        3.38726        0.48048
C          6.85235       -2.34392       -0.89675
C          3.28284        4.52100       -0.19612
C          7.46895       -3.53347       -0.13620
C          2.88363        5.64803        0.78226
C          8.00919       -4.66129       -1.03528
C          2.05410        6.74892        0.14789
C          8.61156       -5.84736       -0.25723
C          9.17753       -6.97250       -1.14303
C          9.77818       -8.15108       -0.35525
C         10.35705       -9.27098       -1.23550
C         10.95583      -10.43445       -0.43478
H          4.54192        0.66374        0.99418
H          6.09966        1.48783        0.79342
H          6.41110        0.38521       -1.45975
H          4.82474       -0.39994       -1.30848
H          3.61205        1.87118       -1.01417
H          5.16859        2.68934       -1.26645
H          5.61505       -1.63777        0.74808
H          7.19416       -0.83790        0.63937
H          3.44617        2.95108        1.29520
H          4.96933        3.80949        0.98679
H          7.60666       -1.93233       -1.60697
H          6.01070       -2.70829       -1.53096
H          3.88304        4.95835       -1.02576
H          2.36066        4.11093       -0.66241
H          6.70794       -3.95563        0.56081
H          8.29209       -3.15912        0.51647
H          2.28383        5.21606        1.61442
H          3.77678        6.13198        1.22477
H          8.78159       -4.24604       -1.72373
H          7.18950       -5.03174       -1.69416
H          7.83526       -6.27198        0.42125
H          9.41689       -5.46883        0.41474
H          9.95686       -6.55218       -1.82065
H          8.37238       -7.35251       -1.81424
H          8.99815       -8.58105        0.31582
H         10.57586       -7.76891        0.32385
H         11.13488       -8.84370       -1.90918
H          9.55804       -9.65597       -1.90985
H         11.78368      -10.09157        0.22268
H         11.36392      -11.22052       -1.10204
H         10.19398      -10.91295        0.21784
O          2.36699        7.92124        0.05147
O          0.86488        6.27256       -0.32479
H          0.41364        7.05187       -0.71934
