47
N-PENTADECYLIC_ACID.gamout	Energy:    -739.5981003
C          6.91313        1.52052        0.02809
C          5.59825        0.72084        0.08178
C          5.78620       -0.80572        0.03031
C          6.72559        3.04736        0.07312
C          4.46990       -1.60397        0.06789
C          8.04014        3.84699        0.00474
C          4.65554       -3.13098        0.00992
C          7.85549        5.37452        0.04492
C          3.33581       -3.92096        0.03314
C          9.17104        6.17172       -0.03517
C          3.53152       -5.43880       -0.02909
C          8.99267        7.69910        0.00203
C          2.23209       -6.22273       -0.00961
C         10.31052        8.48779       -0.08730
O          2.45914       -7.56460       -0.07994
O          1.11135       -5.75262        0.05820
C         10.12449       10.00963       -0.05066
H          7.57189        1.20388        0.87016
H          7.46700        1.24549       -0.89955
H          4.94570        1.03970       -0.76423
H          5.03830        0.99314        1.00638
H          6.43753       -1.12611        0.87671
H          6.34823       -1.07575       -0.89392
H          6.06567        3.36122       -0.76913
H          6.17351        3.32439        1.00108
H          3.82517       -1.27969       -0.78176
H          3.90197       -1.33689        0.98894
H          8.70533        3.53290        0.84281
H          8.58680        3.56752       -0.92589
H          5.29903       -3.45645        0.86047
H          5.22527       -3.39772       -0.91069
H          7.18992        5.68615       -0.79375
H          7.31077        5.65617        0.97589
H          2.69178       -3.60469       -0.81655
H          2.75443       -3.67034        0.94726
H          9.84096        5.85860        0.79956
H          9.71153        5.88879       -0.96842
H          4.15479       -5.80824        0.81652
H          4.08898       -5.74830       -0.94177
H          8.32425        8.01384       -0.83340
H          8.45605        7.98767        0.93582
H         10.98191        8.17298        0.74437
H         10.84347        8.20011       -1.02247
H          1.56764       -7.97809       -0.06076
H         11.09620       10.53978       -0.12253
H          9.49055       10.36291       -0.89239
H          9.63480       10.33835        0.89131
