26
N-PENTYL_PROPIONATE.gamout	Energy:    -464.6103898
O         51.81523       29.21371       -0.70595
C         51.21717       29.99737        0.23545
C         49.96159       30.64899       -0.32521
O         51.63778       30.13711        1.37038
C         53.01533       28.51548       -0.29630
C         49.27314       31.58194        0.67112
C         54.26794       29.37357       -0.47787
C         55.54890       28.63721       -0.05780
C         56.82547       29.47755       -0.22096
C         58.09639       28.75120        0.23429
H         50.24526       31.17785       -1.26140
H         49.28611       29.82827       -0.65398
H         52.90744       28.20519        0.76425
H         53.05321       27.61283       -0.94007
H         48.35051       32.01325        0.23316
H         48.99886       31.04214        1.59936
H         49.94059       32.41683        0.96486
H         54.33918       29.69361       -1.54127
H         54.15211       30.29682        0.13042
H         55.45528       28.31769        1.00591
H         55.65388       27.69585       -0.64642
H         56.92971       29.77888       -1.28827
H         56.70993       30.42688        0.34954
H         59.00018       29.38120        0.10077
H         58.04144       28.47124        1.30822
H         58.25643       27.81429       -0.34151
