33
N-PENTYLCYCLOHEXANE.gamout	Energy:    -432.1108502
C          0.98816       -0.26351       -0.20638
C          1.42485        1.11892        0.32796
C          2.05219       -1.32645        0.14731
C         -0.41313       -0.69053        0.27458
C          2.83148        1.51464       -0.15536
C          3.45888       -0.93920       -0.34000
C          3.87748        0.44170        0.19276
C         -1.58066        0.19286       -0.19421
C         -2.96111       -0.36291        0.19100
C         -4.14063        0.49964       -0.28540
C         -5.51272       -0.08338        0.07686
H          0.95340       -0.19043       -1.32197
H          1.41048        1.09037        1.44368
H          0.69057        1.89718        0.02809
H          1.75174       -2.31163       -0.27358
H          2.07005       -1.45613        1.25553
H         -0.41325       -0.74523        1.38910
H         -0.59835       -1.73383       -0.07208
H          3.12536        2.49604        0.27715
H          2.80937        1.65724       -1.26074
H          3.46902       -0.92151       -1.45457
H          4.19733       -1.71256       -0.03532
H          4.87565        0.72887       -0.20410
H          3.98700        0.38633        1.30092
H         -1.47672        1.22094        0.21951
H         -1.53075        0.30806       -1.30223
H         -3.06790       -1.39216       -0.22422
H         -3.01624       -0.48293        1.29821
H         -4.04349        1.52294        0.14374
H         -4.07109        0.63148       -1.38955
H         -5.65176       -1.09115       -0.36978
H         -6.34183        0.55978       -0.28481
H         -5.62857       -0.19138        1.17674
