19
N-PENTYLAMINE.gamout	Energy:    -252.9158742
C         51.98024       10.04944        0.01426
C         50.66988        9.24863        0.00727
C         50.87494        7.72547        0.00218
C         51.78153       11.57032        0.02863
C         49.56537        6.92743       -0.01060
N         53.07169       12.26577       -0.01732
H         52.58476        9.75425        0.90458
H         52.59743        9.78725       -0.87379
H         50.06616        9.54076       -0.88342
H         50.05528        9.53334        0.89309
H         51.47867        7.43583        0.89248
H         51.49061        7.44413       -0.88234
H         51.20059       11.86573       -0.87448
H         51.13526       11.83825        0.90863
H         49.75051        5.83300       -0.01381
H         48.95475        7.16394       -0.90860
H         48.94004        7.15592        0.87948
H         52.92231       13.28344       -0.03477
H         53.58862       12.08184        0.85451
