30
N-PENTYLCYCLOPENTANE.gamout	Energy:    -392.8140201
C          0.82201        1.43936        2.97421
C          1.18605        0.85523        4.35387
C          1.65011        1.84444        5.43998
C          1.97153        1.95003        2.08363
C          1.60871        1.24449        6.86418
C          3.10502        2.39490        5.31821
C          2.95385        0.86555        1.61646
C          2.47138        2.20042        7.69714
C          3.66722        2.49980        6.76819
C          4.04241        1.38576        0.67100
H          0.08970        2.26511        3.12302
H          0.27003        0.65714        2.40468
H          0.27737        0.34390        4.74137
H          1.94978        0.05042        4.24507
H          0.94782        2.71095        5.42920
H          2.53061        2.76181        2.60099
H          1.52056        2.43050        1.18572
H          2.06632        0.22743        6.85543
H          0.57439        1.13028        7.24916
H          3.12538        3.37552        4.80046
H          3.72944        1.70710        4.70941
H          3.43492        0.38599        2.49838
H          2.38074        0.05249        1.11382
H          2.77765        1.77812        8.67524
H          1.89997        3.13173        7.90875
H          4.12905        3.48570        6.98027
H          4.46372        1.74166        6.92700
H          3.60701        1.83383       -0.24857
H          4.72711        0.57343        0.35028
H          4.66473        2.17051        1.15361
