17
N-PENTANE.gamout	Energy:    -197.6116356
C          3.75304        2.41269        2.89781
C          2.60439        1.47745        2.49076
C          1.82625        1.94038        1.24829
C          4.52824        1.93369        4.13137
C          0.67335        1.00689        0.86252
H          3.34291        3.43120        3.08667
H          4.45239        2.52861        2.03822
H          1.89727        1.36963        3.34653
H          3.00948        0.45402        2.31090
H          2.53296        2.03907        0.39254
H          1.43257        2.96709        1.42780
H          5.34666        2.63273        4.40210
H          3.86231        1.84089        5.01629
H          4.98542        0.93538        3.95981
H         -0.06808        0.91809        1.68568
H          1.03976       -0.01846        0.64039
H          0.13064        1.36839       -0.03583
