10
N-PROPIONALDEHYDE.gamout	Energy:    -192.9967617
C          0.58632        1.23189        0.74105
O          0.02329        1.99055       -0.02276
C          2.07847        0.94613        0.74951
C          2.66854        0.79957        2.15870
H         -0.00254        0.65284        1.52443
H          2.20945       -0.00905        0.18569
H          2.57997        1.73473        0.15017
H          3.74274        0.52965        2.11531
H          2.58407        1.74364        2.73646
H          2.14800        0.00581        2.73545
