21
N-PROPYL_METHACRYLATE.gamout	Energy:    -424.1009634
C         87.00039       31.07706       -0.09749
C         85.74034       30.25629       -0.08175
O         84.72365       30.82562       -0.78594
O         85.64415       29.18580        0.50157
C         88.15578       30.46807        0.65445
C         87.05617       32.26523       -0.74184
C         83.47126       30.10461       -0.81979
C         82.58800       30.42948        0.38634
C         81.22232       29.73616        0.30295
H         87.88962       30.29919        1.71909
H         88.41283       29.46857        0.24437
H         89.05314       31.11501        0.60776
H         87.98161       32.86430       -0.74725
H         86.18025       32.66351       -1.27429
H         82.98807       30.42538       -1.76562
H         83.68132       29.01512       -0.86730
H         83.12214       30.11421        1.30770
H         82.45748       31.53212        0.44724
H         80.59382       29.98249        1.18277
H         80.66012       30.04663       -0.60385
H         81.32631       28.63084        0.26869
