12
N-PROPANOL.gamout	Energy:    -194.2011401
C         -0.20274        1.03408        0.66664
C          1.22077        0.51917        0.87115
C          2.17076        1.58004        1.43657
O         -0.99444       -0.02275        0.14215
H         -0.60252        1.40932        1.64488
H         -0.17795        1.91858       -0.02239
H          1.59368        0.14266       -0.10673
H          1.17615       -0.36397        1.54597
H          1.82892        1.94932        2.42738
H          2.24752        2.46033        0.76261
H          3.19457        1.17471        1.56994
H         -1.89831        0.31797        0.01670
