14
N-PROPYL_FORMATE.gamout	Energy:    -307.4667130
O         -1.50861        0.28784        1.81175
C         -0.07110        0.46160        1.91426
C          0.32482        0.28603        3.37459
C         -2.07417        0.65933        0.64424
C          1.83037        0.47380        3.60023
O         -1.49344        1.11326       -0.31749
H          0.20315        1.46402        1.51942
H          0.42423       -0.28970        1.25934
H          0.00553       -0.72408        3.71214
H         -0.25122        1.01426        3.98653
H         -3.17845        0.47905        0.71036
H          2.42645       -0.26843        3.02762
H          2.08828        0.35212        4.67166
H          2.16678        1.48488        3.28722
