18
N-PROPYLCYCLOPROPANE.gamout	Energy:    -235.6556419
C          2.45464        1.15328        2.32738
C          2.12042        1.99942        1.08259
C          2.23041        1.85404        3.65940
C          3.01321        3.23207        0.88286
C          1.90777        1.05430        4.90622
C          0.84125        1.92360        4.26765
H          3.51528        0.81332        2.26758
H          1.83713        0.22694        2.30504
H          1.05541        2.31993        1.14078
H          2.19569        1.34809        0.18341
H          2.86388        2.74433        3.82468
H          2.91192        3.95738        1.71745
H          4.08669        2.95050        0.81600
H          2.75227        3.77025       -0.05210
H          1.81151       -0.03986        4.80349
H          2.34012        1.37663        5.86744
H          0.53435        2.84566        4.78754
H          0.01970        1.41982        3.73027
