23
N-PROPYL_N-BUTYRATE.gamout	Energy:    -425.3271088
O          5.71785        1.44963        1.30537
C          4.68000        2.30244        1.08720
C          3.34769        1.60947        1.32919
O          4.82702        3.46436        0.75149
C          7.04086        1.99899        1.11013
C          2.13613        2.51247        1.07582
C          8.06020        0.90486        1.40395
C          0.79930        1.80711        1.32679
C          9.50331        1.38941        1.22164
H          3.35635        1.22384        2.37380
H          3.31740        0.69715        0.69203
H          7.17138        2.87991        1.77711
H          7.12911        2.37776        0.06756
H          2.18416        2.89234        0.03253
H          2.22226        3.41552        1.71786
H          7.85496        0.03929        0.73659
H          7.90168        0.53900        2.44196
H          0.67278        0.91957        0.66973
H          0.71438        1.45260        2.37678
H         -0.05806        2.48509        1.13640
H          9.69060        1.73257        0.18188
H         10.22907        0.58015        1.44086
H          9.73876        2.23913        1.89748
