21
N-PROPYLBENZENE.gamout	Energy:    -349.9281254
C         -1.56196        2.28056       -0.20786
C         -1.02811        1.15025        0.70119
C          0.47867        1.17218        0.87042
C         -3.08566        2.25863       -0.37009
C          1.31926        0.47164       -0.02317
C          1.08397        1.93140        1.89658
C          2.71786        0.52686        0.10181
C          2.48242        1.99193        2.02478
C          3.30507        1.28940        1.12701
H         -1.23764        3.25952        0.21134
H         -1.07299        2.20355       -1.20410
H         -1.34166        0.16802        0.28160
H         -1.51612        1.23071        1.69768
H         -3.43298        1.29299       -0.79733
H         -3.43561        3.06796       -1.04388
H         -3.60137        2.38942        0.60525
H          0.86651       -0.13063       -0.82890
H          0.44645        2.48072        2.60988
H          3.35361       -0.03146       -0.60426
H          2.93297        2.58701        2.83557
H          4.40128        1.33296        1.22807
