20
N-PROPYL_PROPIONATE.gamout	Energy:    -386.0443663
C          0.27280        0.50026        4.35319
C          1.65496        0.03732        3.87702
C          2.35110        1.08193        3.01249
O          3.63909        0.55631        2.61899
C          4.40520        1.37155        1.84500
C          5.73245        0.70817        1.50587
O          4.05290        2.48190        1.48875
C          6.63624        1.58398        0.63862
H          0.33953        1.42754        4.96148
H         -0.40538        0.71206        3.49924
H         -0.21381       -0.27413        4.98017
H          1.56883       -0.90643        3.29508
H          2.30697       -0.19490        4.74742
H          2.50138        2.03953        3.55876
H          1.76103        1.32395        2.10085
H          6.22037        0.43375        2.46740
H          5.50448       -0.26470        1.01656
H          6.86747        2.54233        1.14531
H          7.59160        1.06703        0.41699
H          6.14475        1.83534       -0.32261
