19
N-PROPOXYETHANOL.gamout	Energy:    -347.9165837
O          0.03046       -0.34068        0.00223
O          3.58260        0.26894        0.00593
C         -1.15817        0.42959        0.00251
C         -2.36070       -0.51253       -0.00016
C          1.21217        0.43308        0.00368
C         -3.70318        0.22653        0.00018
C          2.40322       -0.52033        0.00446
H         -1.19035        1.10319       -0.89390
H         -1.19201        1.10003        0.90122
H         -2.27874       -1.17322       -0.89077
H         -2.28003       -1.17623        0.88834
H          1.27162        1.09889       -0.89479
H          1.26989        1.09817        0.90281
H         -3.81371        0.87623       -0.89426
H         -4.55263       -0.48685       -0.00163
H         -3.81494        0.87313        0.89669
H          2.32553       -1.18109       -0.89467
H          2.32381       -1.18182        0.90290
H          4.34311       -0.33864        0.00647
