23
n-PROPYL_ISOBUTYRATE.gamout	Energy:    -425.3269943
C         -5.78211       -0.36672        0.05505
C         -4.42678        0.28244       -0.25004
H         -6.61906        0.31134       -0.20811
H         -5.88146       -0.61632        1.13290
H         -5.92311       -1.30799       -0.51781
C         -3.25634       -0.62673        0.10407
H         -4.31865        1.23575        0.31236
H         -4.35800        0.54837       -1.32764
C         -0.87520       -0.60116        0.04843
C          0.35035        0.23359       -0.33313
C          1.63791       -0.57076       -0.11777
H          1.76857       -0.82539        0.95404
H          2.52157        0.01283       -0.44771
H          1.61608       -1.52511       -0.68006
C          0.35796        1.58339        0.41649
H          0.23021        0.45569       -1.41914
H         -0.56890        2.15721        0.22161
H          1.22354        2.19822        0.09440
H          0.44525        1.42670        1.51270
O         -2.02975        0.06938       -0.21467
H         -3.28711       -1.58395       -0.46216
H         -3.24998       -0.89681        1.18338
O         -0.85279       -1.72278        0.52407
