17
N-PROPYL_ACETATE.gamout	Energy:    -346.7603625
O          4.23787        4.62709        2.31862
C          4.71790        3.64468        1.50852
C          4.37665        5.97888        1.82434
C          4.51119        2.27435        2.12279
O          5.24265        3.85960        0.43131
C          3.79145        6.92741        2.86373
C          3.88992        8.39620        2.43306
H          3.85703        6.06095        0.84392
H          5.45245        6.18712        1.63087
H          3.90784        1.65641        1.42749
H          5.49475        1.77347        2.22754
H          4.01096        2.32883        3.10668
H          2.73038        6.64834        3.04450
H          4.32451        6.77059        3.82691
H          3.46109        9.06844        3.20357
H          4.94479        8.70397        2.27087
H          3.34025        8.58180        1.48574
