27
N-PROPYLCYCLOHEXANE.gamout	Energy:    -353.5448880
C         -3.57734        7.41562        3.04574
C         -2.56707        6.29271        3.33894
C         -1.93401        5.74915        2.04663
H         -3.08872        5.46229        3.86889
H         -1.77862        6.65690        4.03341
C         -4.67316        6.97978        2.04708
H         -3.03710        8.29708        2.62550
H         -4.04943        7.76505        3.99080
C         -4.02261        6.43364        0.75668
H         -5.23084        6.13320        2.52033
C         -5.68944        8.10990        1.78467
C         -3.01051        5.30962        1.03991
H         -3.50720        7.27465        0.23454
H         -4.80257        6.06479        0.05598
H         -2.53906        4.97195        0.09121
H         -3.55452        4.42593        1.44746
H         -1.24694        4.90489        2.27300
H         -1.30526        6.54667        1.58618
C         -6.92255        7.70626        0.95864
H         -5.16758        8.96031        1.28487
H         -6.03483        8.50837        2.76685
C         -7.94058        8.83966        0.78364
H         -7.41490        6.83447        1.44751
H         -6.60198        7.34564       -0.04370
H         -8.31964        9.20161        1.76378
H         -8.81909        8.51277        0.18864
H         -7.49181        9.71221        0.26234
