13
N-PROPYLAMINE.gamout	Energy:    -174.3504232
C          3.37929        1.69755        1.08744
C          2.12552        0.99911        1.63057
C          0.84477        1.82295        1.45605
N          4.56346        0.84765        1.24015
H          3.23673        1.89588        0.00060
H          3.45973        2.70805        1.57468
H          2.03028        0.01393        1.12389
H          2.27936        0.77453        2.71192
H          0.64098        2.03488        0.38433
H         -0.04113        1.29291        1.86265
H          0.91488        2.80148        1.97815
H          5.38772        1.31809        0.84329
H          4.77391        0.72956        2.24174
