46
N-TETRADECYLAMINE.gamout	Energy:    -606.4606550
C        138.02548       10.03214       -0.01683
C        136.73269        9.19636       -0.01761
C        136.96146        7.67441       -0.02194
C        137.78857       11.55301       -0.01093
C        135.66321        6.84660       -0.01825
C        139.07720       12.39553       -0.00597
C        135.88068        5.32259       -0.02087
C        138.83482       13.91568        0.00140
C        134.57698        4.50344       -0.01318
C        140.11872       14.76398        0.00965
C        134.78405        2.98103       -0.00915
C        139.86715       16.28074        0.01804
C        133.47317        2.18142       -0.00551
C        141.14919       17.12238        0.02815
N        133.73617        0.74057        0.05367
H        138.64175        9.75194        0.86906
H        138.64093        9.75844       -0.90535
H        136.11539        9.47746       -0.90255
H        136.11962        9.47252        0.87182
H        137.57850        7.39217        0.86271
H        137.57296        7.39608       -0.91170
H        137.17173       11.83164       -0.89700
H        137.17165       11.82421        0.87745
H        135.04582        7.13133       -0.90203
H        135.05436        7.12862        0.87220
H        139.69284       12.11682        0.88089
H        139.69593       12.12577       -0.89351
H        136.49715        5.03636        0.86269
H        136.48783        5.03815       -0.91162
H        138.21879       14.19345       -0.88557
H        138.21519       14.18380        0.88892
H        133.95954        4.78916       -0.89650
H        133.97169        4.78961        0.87810
H        140.73540       14.48978        0.89739
H        140.74121       14.50063       -0.87742
H        135.38199        2.66898        0.87579
H        135.38547        2.68399       -0.90083
H        139.25099       16.55469       -0.86895
H        139.24503       16.54365        0.90430
H        132.85051        2.51195       -0.88073
H        132.88781        2.46109        0.89986
H        140.92251       18.20842        0.03434
H        141.77188       16.90850        0.92371
H        141.77934       16.92050       -0.86504
H        132.84672        0.22413        0.08755
H        134.19053        0.43919       -0.82099
