134
N-TETRATETRACONTANE.gamout	Energy:   -1729.6395836
C          0.61700        0.44578        0.00080
C         -0.64817       -0.43032        0.00292
C         -0.36899       -1.94449        0.00186
C          0.33811        1.96004        0.00175
C         -1.63775       -2.81590        0.00380
C          1.60716        2.83124       -0.00052
C         -1.37116       -4.33274        0.00263
C          1.34161        4.34834        0.00051
C         -2.65024       -5.19025        0.00425
C          2.62157        5.20458       -0.00180
C         -2.40567       -6.71094        0.00291
C          2.37918        6.72568       -0.00077
C         -3.69976       -7.54701        0.00419
C          3.67480        7.55944       -0.00297
C         -3.48451       -9.07218        0.00275
C          3.46299        9.08512       -0.00178
C         -4.79616       -9.88142        0.00369
C          4.77681        9.89087       -0.00376
C         -4.61408      -11.41113        0.00211
C          4.59953       11.42118       -0.00241
C         -5.94286      -12.19244        0.00280
C          5.93113       12.19774       -0.00408
C         -5.79199      -13.72568        0.00111
C          5.78652       13.73160       -0.00252
C         -7.13514      -14.48205        0.00157
C          7.13310       14.48194       -0.00386
C         -7.01049      -16.01778       -0.00016
C          7.01605       16.01829       -0.00212
C         -8.36474      -16.75398        0.00013
C          8.37417       16.74720       -0.00318
C         -8.26062      -18.29147       -0.00163
C          8.27836       18.28513       -0.00130
C         -9.62313      -19.01231       -0.00143
C          9.64494       18.99805       -0.00214
C         -9.53494      -20.55107       -0.00325
C          9.56560       20.53721       -0.00019
C        -10.90340      -21.25995       -0.00314
C         10.93830       21.23788       -0.00090
C        -10.82970      -22.79823       -0.00495
C         10.87416       22.77661        0.00104
C        -12.20252      -23.49171       -0.00485
C         12.25136       23.46138        0.00039
C        -12.12499      -25.02353       -0.00668
C         12.18366       24.99367        0.00236
H          1.24309        0.18791        0.88707
H          1.23970        0.18841       -0.88800
H         -1.27433       -0.17256       -0.88333
H         -1.27101       -0.17316        0.89167
H          0.25662       -2.20320        0.88816
H          0.25327       -2.20260       -0.88697
H         -0.28756        2.21882       -0.88450
H         -0.28404        2.21842        0.89059
H         -2.26216       -2.55384       -0.88244
H         -2.25912       -2.55475        0.89245
H          2.23168        2.56911        0.88564
H          2.22820        2.56970       -0.88929
H         -0.74855       -4.59801        0.88900
H         -0.75161       -4.59723       -0.88612
H          0.71887        4.61401       -0.88567
H          0.72257        4.61350        0.88942
H         -3.27094       -4.91965       -0.88195
H         -3.26824       -4.92082        0.89270
H          3.24230        4.93355        0.88426
H          3.23887        4.93419       -0.89045
H         -1.78791       -6.98670        0.88932
H         -1.79065       -6.98558       -0.88576
H          1.76139        7.00218       -0.88694
H          1.76502        7.00155        0.88811
H         -4.31505       -7.26454       -0.88197
H         -4.31273       -7.26591        0.89239
H          4.28999        7.27597        0.88295
H          4.28668        7.27688       -0.89146
H         -2.87301       -9.36090        0.88922
H         -2.87539       -9.35959       -0.88579
H          2.85161        9.37513       -0.88791
H          2.85510        9.37423        0.88705
H         -5.40488       -9.58521       -0.88241
H         -5.40294       -9.58683        0.89166
H          5.38524        9.59319        0.88205
H          5.38214        9.59435       -0.89207
H         -4.00940      -11.71340        0.88865
H         -4.01149      -11.71184       -0.88640
H          3.99526       11.72529       -0.88861
H          3.99846       11.72408        0.88638
H         -6.54509      -11.88328       -0.88325
H         -6.54341      -11.88506        0.89060
H          6.53270       11.88641        0.88165
H          6.52990       11.88794       -0.89225
H         -5.19350      -14.03976        0.88774
H         -5.19532      -14.03798       -0.88738
H          5.18883       14.04815       -0.88882
H          5.19171       14.04662        0.88625
H         -7.73174      -14.16222       -0.88448
H         -7.73031      -14.16413        0.88928
H          7.72868       14.15935        0.88187
H          7.72619       14.16118       -0.89193
H         -6.41707      -16.34116        0.88657
H         -6.41867      -16.33935       -0.88861
H          6.42380       16.34475       -0.88849
H          6.42637       16.34295        0.88664
H         -8.95690      -16.42617       -0.88599
H         -8.95565      -16.42813        0.88781
H          8.96505       16.41616        0.88260
H          8.96282       16.41819       -0.89120
H         -7.67104      -18.62187        0.88511
H         -7.67245      -18.61997       -0.89002
H          7.69016       18.61887       -0.88770
H          7.69247       18.61690        0.88738
H        -10.21183      -18.67842       -0.88762
H        -10.21064      -18.68049        0.88633
H         10.23214       18.66073        0.88374
H         10.23010       18.66289       -0.89019
H         -8.94814      -20.88661        0.88347
H         -8.94944      -20.88468       -0.89157
H          8.98034       20.87628       -0.88659
H          8.98247       20.87419        0.88841
H        -11.48954      -20.92194       -0.88952
H        -11.48845      -20.92406        0.88476
H         11.52275       20.89623        0.88519
H         11.52086       20.89847       -0.88910
H        -10.24719      -23.14136        0.88197
H        -10.24839      -23.13942       -0.89341
H         10.29343       23.12346       -0.88560
H         10.29538       23.12139        0.88976
H        -12.78500      -23.14933       -0.89093
H        -12.78387      -23.15139        0.88278
H         12.83201       23.11523        0.88621
H         12.83013       23.11744       -0.88752
H        -13.13637      -25.47831       -0.00652
H        -11.58749      -25.40741        0.88724
H        -11.58871      -25.40536       -0.90221
H         13.19795       25.44192        0.00185
H         11.64832       25.38108       -0.89133
H         11.65019       25.37891        0.89810
