57
N-TETRADECYLCYCLOPENTANE.gamout	Energy:    -746.3566350
C          1.04426       10.35145        2.62774
C         -0.02106       10.01979        3.71172
C          2.13599        9.28110        2.80669
C          0.67134        9.03939        4.70211
C          2.17365        9.04289        4.33050
C          2.96269        7.80192        4.77873
C          3.03394        7.60487        6.30355
C          6.04178        5.12845        7.07238
C          5.31877        6.36391        6.50662
C          7.57219        5.10694        6.88948
C          3.80351        6.35505        6.77222
C          9.59160        4.95362        5.28085
C          8.05980        4.94016        5.44199
C         10.35501        3.84150        6.02314
C          9.37468        0.80497        1.32137
C         10.25966        0.14511        2.38557
C          9.94965        0.56000        3.83560
C         10.23028        2.03580        4.16890
C          9.98006        2.39765        5.64195
H          1.47818       11.35795        2.81353
H          0.62329       10.37096        1.60237
H         -0.92250        9.55266        3.26381
H         -0.37116       10.94095        4.22122
H          1.84302        8.33626        2.29225
H          3.11721        9.58725        2.38940
H          0.49267        9.31260        5.76158
H          0.27017        8.00904        4.56876
H          2.64319        9.94378        4.79595
H          2.50166        6.89779        4.31376
H          3.99191        7.86689        4.36098
H          3.48497        8.51257        6.76951
H          1.99980        7.54465        6.70784
H          5.60603        4.20682        6.61937
H          5.81941        5.05496        8.16081
H          5.76232        7.28316        6.95658
H          5.50691        6.43838        5.41212
H          8.00986        6.03902        7.31845
H          7.97532        4.27565        7.50847
H          3.63110        6.23105        7.86517
H          3.35493        5.44978        6.29881
H          9.83455        4.91160        4.19613
H          9.98135        5.93568        5.63207
H          7.64036        3.99570        5.02470
H          7.64262        5.75389        4.80916
H         11.44413        3.99020        5.84475
H         10.21849        3.96703        7.12004
H          8.29787        0.59418        1.50075
H          9.49535        1.90868        1.29895
H          9.61958        0.43095        0.30597
H         10.15614       -0.95965        2.30671
H         11.33033        0.36212        2.16466
H          8.88205        0.32872        4.06229
H         10.54692       -0.08223        4.52183
H         11.28974        2.27332        3.91299
H          9.60931        2.68751        3.51460
H          8.91197        2.19904        5.89083
H         10.56493        1.70570        6.28906
