60
N-TETRADECYLCYCLOHEXANE.gamout	Energy:    -785.6391146
C          1.72404        1.63247        1.09807
C          1.17599        3.02883        1.42617
C          0.78773        0.52456        1.63783
C          1.14832        3.29230        2.95987
C          0.90168        1.96627        3.72816
C          2.43229        4.00858        3.43298
C          0.04604        0.98226        2.91613
C          2.47608        4.36333        4.93003
C          3.74043        5.11882        5.38536
C          7.75671        7.58570        7.16889
C          7.64477        6.14715        7.70324
C          9.02837        8.34947        7.58759
C          6.36126        5.40932        7.27378
C          6.30540        5.04609        5.77987
C          5.03696        4.29361        5.33409
C         14.39901        7.99470        4.65464
C         13.03287        8.41275        5.21387
C         12.90557        8.21278        6.73337
C         11.57044        8.67510        7.34779
C         10.33478        7.85151        6.94410
H          1.87219        1.51653        0.00447
H          2.73566        1.53025        1.54985
H          1.77962        3.81401        0.92348
H          0.15049        3.11967        1.00645
H          1.38092       -0.39123        1.84685
H          0.04460        0.23762        0.86269
H          0.28942        3.97237        3.16464
H          1.88089        1.48430        3.95772
H          0.42724        2.16894        4.71036
H          2.55930        4.94423        2.84199
H          3.30625        3.36645        3.17257
H         -0.23557        0.10606        3.53559
H         -0.91120        1.48030        2.64248
H          2.37044        3.43531        5.53669
H          1.58383        4.98299        5.17621
H          3.57297        5.48235        6.42263
H          3.86953        6.03718        4.76477
H          7.68969        7.57951        6.05681
H          6.86712        8.15894        7.51516
H          8.53078        5.55231        7.38182
H          7.69159        6.17691        8.81523
H          8.89339        9.42431        7.32989
H          9.12944        8.32248        8.69841
H          6.26179        4.47429        7.87012
H          5.47844        6.03247        7.54697
H          7.19536        4.42227        5.53762
H          6.41361        5.96926        5.16498
H          4.91059        3.37779        5.95919
H          5.19549        3.92635        4.29644
H         14.60472        6.92024        4.85046
H         14.45577        8.14960        3.55739
H         15.22523        8.57727        5.11653
H         12.23461        7.84098        4.68964
H         12.84110        9.48396        4.97376
H         13.73265        8.76346        7.23553
H         13.07636        7.13743        6.97616
H         11.39976        9.74573        7.08392
H         11.66494        8.65681        8.45702
H         10.21439        7.86360        5.83665
H         10.51061        6.78521        7.21586
