44
N-TETRADECANOIC_ACID.gamout	Energy:    -700.3151753
C          0.74531       -0.49240       -0.00007
C         -0.52896        0.37042       -0.00007
C          2.05473        0.31524       -0.00004
C         -1.83617       -0.44119       -0.00003
C          3.32513       -0.55379       -0.00008
C         -3.11295        0.41830       -0.00006
C          4.63564        0.24963        0.00002
C         -4.42001       -0.39413        0.00003
C          5.88624       -0.63429       -0.00006
C         -5.69710        0.46529       -0.00004
C         -7.00556       -0.34359        0.00009
C         -8.27736        0.52053       -0.00006
C         -9.57857       -0.29219        0.00013
O          7.30169        1.35782        0.00012
O          8.26564       -0.68885        0.00004
C          7.18846        0.14577        0.00005
H          9.05112       -0.09795        0.00010
H          0.73029       -1.16706        0.88775
H          0.73035       -1.16704       -0.88791
H         -0.51522        1.04504        0.88769
H         -0.51530        1.04504       -0.88783
H          2.07155        0.98947       -0.88775
H          2.07159        0.98940        0.88774
H         -1.84854       -1.11595       -0.88780
H         -1.84859       -1.11589        0.88778
H          3.30573       -1.22869        0.88764
H          3.30584       -1.22858       -0.88789
H         -3.10021        1.09313        0.88764
H         -3.10032        1.09303       -0.88784
H          4.67222        0.92346       -0.88392
H          4.67226        0.92326        0.88412
H         -4.43233       -1.06894       -0.88773
H         -4.43238       -1.06879        0.88791
H          5.90953       -1.31522        0.88081
H          5.90962       -1.31503       -0.88107
H         -5.68437        1.14024        0.88762
H         -5.68450        1.14004       -0.88787
H         -7.02219       -1.01833       -0.88785
H         -7.02226       -1.01808        0.88822
H         -8.26114        1.19490        0.88689
H         -8.26121        1.19458       -0.88726
H         -9.64997       -0.94729       -0.89477
H         -9.65000       -0.94692        0.89529
H        -10.46918        0.36931       -0.00001
