74
N-TETRACOSANE.gamout	Energy:    -943.9664505
C          3.76604        4.83344        8.05212
C          2.52337        4.65872        7.15728
C          2.01497        5.95233        6.49501
C          5.06196        5.19619        7.30527
C          0.73457        5.80263        5.64277
C          6.30444        5.26287        8.20946
C          0.93903        5.49119        4.14759
C          7.59950        5.71148        7.50448
C          1.57251        4.13241        3.80904
C          8.09005        4.80341        6.35964
C          1.58774        3.78313        2.30768
C          8.50844        3.38130        6.78001
C          2.45998        4.70094        1.43622
C          9.83053        3.28762        7.57543
C          2.45757        4.35659       -0.06592
C         11.07844        2.93760        6.74089
C          3.05945        2.99273       -0.45873
C         11.50465        3.95840        5.67128
C          4.56296        2.83622       -0.17491
C         12.79373        3.56923        4.92512
C          5.15681        1.50932       -0.67586
C         13.22678        4.57010        3.84053
C          6.65866        1.35435       -0.40218
C         14.50660        4.16161        3.10002
H          3.55459        5.60540        8.82913
H          3.93512        3.88613        8.61273
H          1.69732        4.23648        7.77205
H          2.73796        3.88873        6.38331
H          2.81571        6.40772        5.86909
H          1.81970        6.69064        7.30434
H          5.22731        4.44640        6.49797
H          4.94359        6.17486        6.78608
H          0.07121        5.03194        6.10075
H          0.16121        6.75246        5.69970
H          6.10342        5.96335        9.05035
H          6.46148        4.26957        8.69007
H         -0.05494        5.55109        3.64897
H          1.54573        6.31013        3.69823
H          7.45345        6.73714        7.09737
H          8.40112        5.81120        8.26980
H          2.61556        4.09370        4.19775
H          1.02020        3.33353        4.35330
H          8.94317        5.30485        5.85503
H          7.29244        4.72903        5.58892
H          1.93444        2.73196        2.19752
H          0.54275        3.79812        1.91779
H          8.58622        2.74357        5.87170
H          7.68627        2.92857        7.37536
H          3.50495        4.69403        1.82301
H          2.11090        5.75081        1.54213
H         10.00650        4.23689        8.13173
H          9.73108        2.50674        8.35745
H          1.41148        4.40262       -0.44483
H          3.00493        5.15815       -0.61159
H         11.93033        2.77406        7.43888
H         10.90803        1.95226        6.24598
H          2.88289        2.84219       -1.54751
H          2.49928        2.17114        0.04417
H         11.63793        4.95938        6.14444
H         10.68556        4.08224        4.92669
H          5.11127        3.68564       -0.64601
H          4.75432        2.92713        0.91901
H         13.62316        3.44496        5.65992
H         12.65661        2.56533        4.45864
H          4.60650        0.66160       -0.20660
H          4.96957        1.41506       -1.77038
H         13.36919        5.57455        4.30148
H         12.39872        4.69350        3.10546
H          6.88354        1.39676        0.68542
H          7.03943        0.38491       -0.78274
H          7.24911        2.15822       -0.89261
H         14.78517        4.90817        2.32875
H         15.36847        4.06489        3.79507
H         14.38626        3.18275        2.58743
