71
N-TRICOSANE.gamout	Energy:    -904.6950723
C          6.90902        6.46468        5.30352
C          5.67013        5.78569        4.69436
C          4.49545        5.62555        5.67451
C          8.07656        6.63136        4.31676
C          3.25984        4.89595        5.10961
C          9.29650        7.39472        4.86704
C          2.53106        5.63411        3.97348
C         10.03598        6.74653        6.05331
C          1.22775        4.95460        3.52165
C         10.68903        5.38570        5.75818
C          0.43824        5.71587        2.43800
C         11.48006        4.81619        6.94845
C          1.11174        5.84609        1.05783
C         12.09850        3.42064        6.73098
C          1.31973        4.51997        0.30680
C         13.22615        3.34720        5.68654
C          1.89842        4.68788       -1.11073
C         13.86328        1.95222        5.55391
C          2.09914        3.36942       -1.87899
C         14.99434        1.86511        4.51548
C          2.66965        3.54564       -3.29664
C         15.62076        0.46905        4.39968
C          2.85746        2.22522       -4.05496
H          7.24697        5.88133        6.19105
H          6.62099        7.46631        5.70061
H          5.95471        4.78310        4.29741
H          5.33989        6.37219        3.80640
H          4.85030        5.07640        6.57551
H          4.18402        6.63054        6.04441
H          8.39372        5.62961        3.94576
H          7.71134        7.17062        3.41391
H          3.55753        3.87799        4.76512
H          2.54308        4.72989        5.94497
H          8.97131        8.41503        5.17160
H         10.01818        7.55013        4.03423
H          3.21492        5.75010        3.10284
H          2.29809        6.67288        4.30691
H          9.34102        6.64234        6.91816
H         10.82135        7.45634        6.39677
H          1.44518        3.91753        3.17699
H          0.56336        4.83172        4.40688
H         11.35738        5.48824        4.87279
H          9.90803        4.64896        5.46068
H         -0.55129        5.22284        2.30803
H          0.21042        6.73791        2.81621
H         10.80532        4.76224        7.83177
H         12.28436        5.53354        7.23507
H          0.48185        6.51590        0.43033
H          2.08665        6.37604        1.15730
H         11.29246        2.70149        6.45384
H         12.49059        3.05780        7.70750
H          1.98956        3.85085        0.89417
H          0.34438        3.98312        0.24524
H         14.01746        4.08829        5.94744
H         12.83938        3.66237        4.69044
H          2.87164        5.22833       -1.04804
H          1.22907        5.35537       -1.70290
H         14.25415        1.63107        6.54820
H         13.07239        1.20956        5.29595
H          1.12592        2.82885       -1.94239
H          2.77242        2.69828       -1.29570
H         14.60496        2.18032        3.52006
H         15.78631        2.60613        4.77067
H          3.64322        4.08384       -3.23574
H          1.99775        4.21598       -3.88057
H         16.43003        0.44958        3.64180
H         16.06107        0.13988        5.36557
H         14.86741       -0.29251        4.10403
H          1.89374        1.68398       -4.16957
H          3.26721        2.39450       -5.07162
H          3.55651        1.54483       -3.52246
