41
N-TRIDECYLIC_ACID.gamout	Energy:    -661.0325743
C         -0.05161        0.61665       -0.08776
C          1.21920        1.46779       -0.20527
C          0.98132        2.96961        0.02421
C          2.25153        3.83041       -0.08749
C          2.01695        5.33604        0.12813
C          3.29213        6.19196        0.01799
C          3.06001        7.70379        0.19469
C          4.34042        8.55246        0.08367
O          7.40728       15.42208       -0.07611
C          6.22623       14.74259       -0.07907
C          6.45099       13.24326        0.00625
O          5.14926       15.30551       -0.14960
C          5.15774       12.42818        0.10600
C          5.39429       10.90931        0.08403
C          4.10771       10.06995        0.19410
H          0.16023       -0.45945       -0.25642
H         -0.51195        0.71137        0.91934
H         -0.81888        0.92488       -0.83044
H          1.67406        1.31832       -1.21124
H          1.97955        1.10247        0.52268
H          0.52244        3.11817        1.02950
H          0.22261        3.33576       -0.70653
H          2.71337        3.67014       -1.08952
H          3.00586        3.46711        0.64906
H          1.55198        5.49677        1.12853
H          1.26631        5.70043       -0.61159
H          3.76915        6.00816       -0.97280
H          4.03424        5.84338        0.77384
H          2.57928        7.89042        1.18295
H          2.32328        8.05292       -0.56604
H          4.83999        8.32954       -0.88779
H          5.06326        8.23139        0.86980
H          7.16014       16.37104       -0.14270
H          7.04470       12.95290       -0.89052
H          7.13293       13.05650        0.86573
H          4.61576       12.71965        1.03236
H          4.48886       12.72387       -0.73148
H          5.92633       10.63555       -0.85683
H          6.08851       10.62774        0.91018
H          3.60046       10.29857        1.15975
H          3.39467       10.38994       -0.60096
