57
N-TRIDECYLCYCLOHEXANE.gamout	Energy:    -746.3519637
C          3.38204        8.06667        5.59591
C          3.52768        6.76151        4.77544
C          2.50406        9.11835        4.87642
C          3.49797        7.03573        3.26071
C          2.10489        7.60695        2.87327
C          3.86606        5.81466        2.39064
C          1.44446        8.43483        4.00329
C          5.32638        5.33622        2.48248
C          5.65991        4.17278        1.53247
C          7.14199        3.75391        1.52025
C          7.71670        3.10089        2.79304
C          7.27312        1.64983        3.09008
C          5.97939        1.46802        3.90384
C          5.68636       -0.00263        4.25550
C          4.42904       -0.24854        5.11975
C          3.11547       -0.52200        4.36162
C          2.53393        0.63710        3.53709
C          1.16138        0.32141        2.91987
C          0.56925        1.47159        2.09619
H          4.38475        8.50069        5.79904
H          2.94858        7.82527        6.59042
H          2.70045        6.05594        5.01992
H          4.46373        6.24188        5.06490
H          3.13653        9.76843        4.23130
H          2.03018        9.79535        5.61726
H          4.25984        7.82644        3.05829
H          1.43131        6.76818        2.59073
H          2.21507        8.23030        1.95892
H          3.18263        4.97130        2.65061
H          3.63763        6.06451        1.32878
H          0.74619        9.18137        3.57201
H          0.82106        7.77371        4.64623
H          5.55860        5.04109        3.53017
H          6.00676        6.18996        2.25511
H          5.01681        3.29663        1.77465
H          5.37914        4.46570        0.49563
H          7.75535        4.65453        1.29009
H          7.30527        3.05903        0.66680
H          8.82200        3.09746        2.68329
H          7.51860        3.74390        3.68135
H          8.09639        1.14218        3.64130
H          7.18184        1.09654        2.12654
H          5.11612        1.89838        3.35208
H          6.05448        2.05682        4.84704
H          6.57270       -0.41471        4.78804
H          5.60909       -0.59762        3.31580
H          4.61757       -1.12648        5.77234
H          4.28342        0.60941        5.81667
H          3.25895       -1.40590        3.69691
H          2.35177       -0.83639        5.10863
H          3.23728        0.91642        2.72009
H          2.45103        1.54156        4.18473
H          0.45155        0.04127        3.73131
H          1.25195       -0.58437        2.27695
H          0.41944        2.38284        2.71476
H         -0.41663        1.19783        1.66846
H          1.23339        1.75266        1.25083
