92
N-TRIACONTANE.gamout	Energy:   -1179.6790055
C         14.45959        1.31345        7.24981
C         13.09173        1.22903        6.54946
C         11.88758        1.21950        7.50884
C         15.65826        1.34034        6.28388
C         10.52307        1.16887        6.79855
C         17.02738        1.45566        6.97795
C          9.31033        1.17967        7.74773
C         18.22368        1.49650        6.00907
C          7.95102        1.16242        7.02581
C         19.59198        1.63831        6.70052
C          6.73552        1.19462        7.96926
C         20.78747        1.68976        5.73094
C          5.36273        1.13515        7.26966
C         22.15391        1.85232        6.42173
C          5.02822        2.35773        6.39469
C         23.34932        1.91162        5.45249
C          3.61474        2.33771        5.78209
C         24.71376        2.08910        6.14345
C          3.29759        3.55977        4.89702
C         25.90916        2.15385        5.17441
C          1.88280        3.56066        4.28607
C         27.27288        2.34117        5.86438
C          1.57849        4.78302        3.39843
C         28.46738        2.40937        4.89435
C          0.16393        4.77962        2.79238
C         29.83183        2.60190        5.57945
C         -0.19723        6.02586        1.96236
C         31.01964        2.67092        4.60489
C          0.62541        6.20710        0.68007
C         32.37566        2.86423        5.29588
H         14.56886        0.45473        7.95237
H         14.48816        2.22709        7.88856
H         13.06251        0.31628        5.90963
H         12.98594        2.08973        5.84870
H         11.93123        2.12818        8.15370
H         11.97539        0.35437        8.20657
H         15.64380        0.42238        5.65098
H         15.53216        2.19340        5.57714
H         10.47940        0.26135        6.15214
H         10.44291        2.03664        6.10302
H         17.15436        0.60372        7.68580
H         17.04124        2.37407        7.61041
H          9.37450        0.30947        8.44213
H          9.36806        2.08380        8.39795
H         18.08275        2.34217        5.29625
H         18.22344        0.57386        5.38271
H          7.88906        0.25591        6.37925
H          7.90277        2.03222        6.33198
H         19.73236        0.79288        7.41368
H         19.59233        2.56103        7.32687
H          6.80737        0.34271        8.68151
H          6.78575        2.11456        8.59782
H         20.63618        2.52933        5.01297
H         20.79890        0.76349        5.10998
H          5.30328        0.21074        6.64893
H          4.57563        1.02144        8.04818
H         22.30388        1.01241        7.13949
H         22.14317        2.77844        7.04297
H          5.14774        3.28415        7.00408
H          5.77401        2.44002        5.57189
H         23.36947        0.98299        4.83530
H         23.19133        2.74687        4.73087
H          2.85966        2.26816        6.59960
H          3.48696        1.40782        5.17980
H         24.87061        1.25344        6.86472
H         24.69452        3.01762        6.76089
H          4.04944        3.61621        4.07588
H          3.43639        4.49166        5.49399
H         25.74646        2.98631        4.45060
H         25.93456        1.22378        4.55954
H          1.74058        2.63045        3.68738
H          1.12916        3.50484        5.10579
H         27.24834        3.27129        6.47923
H         27.43501        1.50840        6.58788
H          2.33790        4.83333        2.58565
H          1.71414        5.71574        3.99508
H         28.49512        1.47858        4.28064
H         28.30167        3.24045        4.16958
H         -0.57644        4.67549        3.61752
H          0.03558        3.87043        2.15916
H         29.80900        3.53341        6.19248
H         30.00177        1.77097        6.30355
H         -0.09532        6.93338        2.60140
H         -1.27505        5.96718        1.69507
H         30.85045        3.50109        3.88121
H         31.04526        1.74058        3.99215
H          0.53974        5.31849        0.01770
H          0.27846        7.08713        0.10095
H          1.70457        6.36022        0.89130
H         32.59862        2.03051        5.99620
H         33.20296        2.90946        4.55855
H         32.40279        3.80598        5.88528
