35
N-UNDECANE.gamout	Energy:    -433.3059782
C          5.40624        2.64322        3.85694
C          6.54759        2.25592        4.81373
C          7.50885        1.17031        4.29367
C          8.36168        1.57700        3.08128
C          9.36098        0.49726        2.64633
C          4.43066        3.68058        4.44221
C          3.28245        4.07848        3.49751
C          2.31420        5.11664        4.09154
C          1.11540        5.47995        3.19479
C          1.47345        6.21026        1.89013
C          0.25011        6.61205        1.05742
H          4.83924        1.72525        3.57410
H          5.82680        3.03989        2.90489
H          6.10425        1.90771        5.77429
H          7.13507        3.16814        5.07269
H          6.93100        0.24969        4.04359
H          8.18885        0.87658        5.12514
H          8.91055        2.51604        3.32385
H          7.70117        1.82971        2.22184
H         10.07168        0.24693        3.46352
H          9.96108        0.82524        1.77254
H          8.84507       -0.44469        2.36047
H          5.00065        4.59448        4.73168
H          4.00496        3.28427        5.39401
H          2.70456        3.16754        3.21380
H          3.71278        4.46729        2.54655
H          2.87925        6.04478        4.34373
H          1.93187        4.72994        5.06329
H          0.41485        6.11781        3.77947
H          0.54209        4.55451        2.95098
H          2.14078        5.57012        1.27090
H          2.07232        7.11712        2.13730
H          0.54466        7.13983        0.12666
H         -0.42665        7.28868        1.62290
H         -0.34901        5.72458        0.75922
