37
N-UNDECYLAMINE.gamout	Energy:    -488.6125017
C        104.00367       10.03867       -0.00979
C        102.69100        9.23366       -0.00854
C        102.88652        7.70702       -0.00304
C        103.80666       11.56523       -0.01521
C        101.57191        6.90501       -0.00032
C        105.11939       12.36965       -0.01490
C        101.75914        5.37810        0.00477
C        104.92592       13.89386       -0.01456
C        100.44032        4.58582        0.00822
C        106.24290       14.68298       -0.02018
C        100.63276        3.06418        0.01285
N        105.99121       16.12617        0.03531
H        104.61042        9.74882        0.87948
H        104.61339        9.74237       -0.89496
H        102.08355        9.52368       -0.89728
H        102.08206        9.52996        0.87705
H        103.49407        7.41674        0.88552
H        103.49476        7.41026       -0.88901
H        103.19998       11.85497       -0.90454
H        103.19721       11.86142        0.86985
H        100.96439        7.19723       -0.88835
H        100.96476        7.20332        0.88590
H        105.72503       12.07938        0.87477
H        105.72982       12.07468       -0.89997
H        102.36476        5.08200        0.89292
H        102.36391        5.07593       -0.88191
H        104.32256       14.19275       -0.90430
H        104.33487       14.21318        0.87241
H         99.83545        4.88259       -0.87905
H         99.83681        4.88832        0.89447
H        106.83082       14.40196        0.88310
H        106.85833       14.34499       -0.89764
H         99.65958        2.53151        0.01526
H        101.19857        2.72745        0.90804
H        101.19722        2.72184       -0.88107
H        106.88485       16.63569        0.06203
H        105.53417       16.42777       -0.83783
