17
N-VALERIC_ACID.gamout	Energy:    -346.7684872
C          0.92079        0.93989        1.06703
C          2.09374        1.83517        1.48648
C          3.46552        1.18991        1.24096
C          4.64693        2.10381        1.63697
C          5.98207        1.42989        1.38176
O          6.38280        0.68235        2.45104
O          6.62389        1.48886        0.34909
H         -0.05563        1.43067        1.25828
H          0.96732        0.69455       -0.01535
H          0.92775       -0.02139        1.62404
H          2.03966        2.80404        0.93969
H          2.00165        2.09449        2.56571
H          3.54061        0.23730        1.81171
H          3.56832        0.91638        0.16708
H          4.62446        3.03565        1.03637
H          4.56997        2.37451        2.71077
H          7.22693        0.26183        2.17074
