15
N-VALERONITRILE.gamout	Energy:    -250.4999904
C          4.59961        1.14539        0.90353
C          3.21191        1.82197        0.98114
C          2.10019        0.83392        1.36677
C          5.68420        2.06519        0.54478
C          0.71416        1.48548        1.44635
N          6.53864        2.81249        0.25213
H          4.58679        0.32130        0.15591
H          4.85375        0.67438        1.87919
H          2.97981        2.29035       -0.00033
H          3.25163        2.65499        1.71655
H          2.35119        0.36488        2.34522
H          2.08262       -0.00002        0.62890
H          0.69203        2.30015        2.20085
H          0.41821        1.92815        0.47169
H         -0.06426        0.74719        1.72809
