30
NAPHTHACENE.gamout	Energy:    -692.6637452
C          4.17777        3.95129        4.45725
C          3.07754        2.99324        4.54763
C          1.99193        3.11578        3.64113
C          3.13746        1.97790        5.53806
C          5.26415        3.82708        5.36245
C          4.11629        4.96783        3.46828
C          1.93996        4.12460        2.66575
C          4.21617        1.86350        6.42988
C          5.31585        2.81780        6.33750
C          3.03726        5.08196        2.57672
C          0.83994        4.25554        1.74981
C          4.28089        0.83868        7.43574
C          6.41561        2.68641        7.25346
C          2.97245        6.10619        1.57037
C          0.81497        5.25942        0.80429
C          5.35604        0.75088        8.29563
C          6.43835        1.68495        8.20155
C          1.89614        6.19512        0.71202
H          1.16260        2.39347        3.70852
H          2.30742        1.25658        5.60828
H          6.09423        4.54842        5.29457
H          4.94444        5.69141        3.40000
H          0.01011        3.53504        1.81785
H          3.45056        0.11902        7.50896
H          7.24716        3.40468        7.18371
H          3.80373        6.82449        1.49528
H         -0.03769        5.34450        0.11379
H          5.38746       -0.04058        9.05939
H          7.28992        1.60112        8.89346
H          1.86427        6.98744       -0.05090
