31
NAPROXEN.gamout	Energy:    -767.0581521
C          5.75858        1.97162       -0.56447
C          6.88890        2.00602        0.24374
C          4.61436        1.19507       -0.21556
C          6.92333        1.25263        1.45792
C          5.81731        0.48292        1.82938
O          7.99615        1.23078        2.30394
C          4.65385        0.43407        1.01425
C          3.50759       -0.35044        1.35836
C          3.44866        1.13869       -1.03812
C          2.34538        0.36494       -0.68280
C          2.39343       -0.38483        0.53348
C          1.08159        0.32660       -1.55006
C          9.15280        1.98017        1.96691
C          0.28690        1.64516       -1.49866
C          1.47142       -0.01297       -2.98928
O          1.47226       -1.35373       -3.21076
O          1.77340        0.79644       -3.84935
H          5.74087        2.55564       -1.49911
H          7.75152        2.61583       -0.06020
H          5.86557       -0.09086        2.76778
H          3.52415       -0.93532        2.29234
H          3.43752        1.71554       -1.97781
H          1.52216       -0.99954        0.81455
H          0.45061       -0.50832       -1.18152
H          9.87622        1.82078        2.78922
H          9.61231        1.63196        1.01368
H          8.93898        3.07044        1.88569
H         -0.67209        1.55563       -2.04961
H          0.06650        1.92215       -0.44846
H          0.86904        2.46476       -1.96467
H          1.78108       -1.46783       -4.13797
