17
NEOPENTANOIC_ACID.gamout	Energy:    -346.7695611
C         -0.03995        0.29114        0.01547
C          1.32688        1.00056       -0.00394
C          1.13345        2.53772       -0.02888
C          2.16170        0.59764        1.23739
C          2.08682        0.57494       -1.27057
O          3.31274        1.16793       -1.36018
O          1.68403       -0.19754       -2.12167
H          0.07816       -0.81087        0.01920
H         -0.64191        0.55745       -0.87608
H         -0.60605        0.58707        0.92271
H          2.10594        3.06891       -0.04609
H          0.54981        2.85570       -0.91782
H          0.57582        2.86076        0.87501
H          3.15251        1.09401        1.23603
H          2.32377       -0.49988        1.27531
H          1.62531        0.89243        2.16362
H          3.70296        0.82719       -2.19593
