24
NEOPHYL_CHLORIDE.gamout	Energy:    -848.7035528
Cl        -1.88145        2.23127        0.45353
C         -1.40329       -0.49818       -0.06942
C          0.12043       -0.24844       -0.01007
C         -2.12747        0.76746       -0.59053
C         -1.70449       -1.63041       -1.08968
C         -1.99664       -0.89802        1.29656
C          0.82465        0.11850       -1.18171
C          0.86222       -0.37032        1.18376
C          2.20799        0.35441       -1.16223
C          2.24929       -0.13607        1.20912
C          2.93002        0.22800        0.03746
H         -3.22211        0.59487       -0.63414
H         -1.77849        1.04640       -1.60379
H         -1.20788       -2.57121       -0.77582
H         -1.34174       -1.38331       -2.10798
H         -2.79642       -1.82495       -1.15349
H         -1.54509       -1.83875        1.67164
H         -1.84504       -0.10339        2.05352
H         -3.08947       -1.06662        1.19996
H          0.28603        0.22743       -2.13710
H          0.35798       -0.64915        2.11968
H          2.72521        0.64055       -2.09207
H          2.79780       -0.23812        2.15921
H          4.01556        0.41366        0.05742
