14
NICOTINIC_ACID.gamout	Energy:    -436.5487476
C          4.19743       -0.23459       -0.18032
C          2.91359        0.33740       -0.07140
C          4.31163       -1.62994       -0.18214
C          1.80098       -0.52903        0.03106
C          2.78883        1.82752       -0.06897
C          3.13559       -2.39778       -0.07519
N          1.90314       -1.86793        0.02947
O          1.49942        2.24612        0.04340
O          3.72853        2.60105       -0.15647
H          5.07278        0.42876       -0.26069
H          5.29360       -2.12107       -0.26462
H          0.78468       -0.10704        0.11772
H          3.19324       -3.50210       -0.07377
H          1.54062        3.22796        0.03475
