26
NICOTINE.gamout	Energy:    -498.6148839
C          0.28974       -0.53366       -0.12432
C          1.75943       -0.17294       -0.47890
C          2.03281        1.17063        0.26452
N          0.68728        1.72392        0.46405
C         -0.14999        0.58547        0.83844
C          2.96714        2.10884       -0.47845
C          2.51456        2.86362       -1.58627
N          3.29613        3.67324       -2.31960
C          4.59341        3.76749       -1.97386
C          5.15591        3.07426       -0.88790
C          4.32469        2.23446       -0.12900
C          0.61786        2.84802        1.37938
H          2.51150        0.93583        1.25880
H         -0.34170       -0.52939       -1.03530
H          0.19019       -1.53600        0.33861
H          2.48824       -0.94775       -0.16710
H          1.88498       -0.02998       -1.57078
H         -1.22774        0.84413        0.75789
H          0.03286        0.28065        1.90737
H          1.44714        2.80273       -1.86833
H          5.22043        4.43648       -2.59238
H          6.22255        3.19418       -0.64034
H          4.72492        1.67801        0.73583
H         -0.42547        3.22026        1.44642
H          1.25239        3.68182        1.01503
H          0.95658        2.58558        2.41962
