29
NIFLUMIC_ACID.gamout	Energy:   -1059.5670949
F         -3.57007        2.22545       -0.91406
F         -5.15361        0.97204       -0.07661
F         -3.68425        1.91206        1.24077
O          4.93109       -1.26656        0.00027
O          2.91786       -2.27180       -0.13430
N          0.73286       -0.71534       -0.05281
N          1.06582        1.60536        0.17113
C         -0.66574       -0.80280       -0.11622
C         -2.93599        0.08726       -0.08815
C         -1.54685        0.29730       -0.00582
C          1.57867        0.35797        0.06404
C         -1.21232       -2.10099       -0.30445
C         -3.47459       -1.19677       -0.27817
C          3.01041        0.13042        0.07374
C         -2.59588       -2.28948       -0.38440
C         -3.84077        1.29520        0.03946
C          3.85136        1.25592        0.19099
C          3.30234        2.53856        0.29493
C          1.89858        2.64527        0.28130
C          3.57552       -1.22997       -0.03068
H         -1.12597        1.29953        0.13909
H          1.25596       -1.60925       -0.12280
H         -0.53274       -2.96454       -0.39149
H         -4.56265       -1.33716       -0.34063
H         -2.99657       -3.30438       -0.53343
H          4.94002        1.10013        0.19843
H          3.93639        3.43229        0.38704
H          1.41740        3.63746        0.36598
H          5.16758       -2.21725       -0.07406
