7
NITROMETHANE.gamout	Energy:    -244.8471931
N          0.10149        0.01326        0.00065
O          0.64292       -1.04004        0.33338
O          0.67067        1.05426       -0.32178
C         -1.40949        0.01289       -0.00812
H         -1.74533       -0.24012        1.01465
H         -1.76335        1.00922       -0.32087
H         -1.73482       -0.77841       -0.70857
