10
NITROETHANE.gamout	Energy:    -284.1352580
N          0.55703       -0.00244       -0.02021
O          0.56215       -1.23216       -0.00728
O          1.54300        0.72466        0.08164
C         -0.78397        0.70288       -0.23390
C         -1.97179       -0.15040        0.17275
H         -0.69587        1.65508        0.32323
H         -0.78903        0.94829       -1.31683
H         -1.94310       -1.12867       -0.34400
H         -1.98249       -0.33769        1.26514
H         -2.91293        0.36924       -0.09894
