14
NITROBENZENE.gamout	Energy:    -436.4513485
N          1.67090        0.00000       -0.00013
O          2.23855       -1.09496        0.00292
O          2.23855        1.09496       -0.00318
C          0.18188       -0.00000       -0.00059
C         -0.49533       -1.22939       -0.00099
C         -1.89905       -1.22092       -0.00118
C         -2.59958        0.00000       -0.00047
C         -1.89905        1.22092        0.00070
C         -0.49533        1.22938        0.00296
H          0.08762       -2.16102       -0.00131
H         -2.44938       -2.17464       -0.00189
H         -3.70100        0.00000       -0.00091
H         -2.44937        2.17464        0.00113
H          0.08762        2.16101        0.00376
