40
NONYLPHENOL.gamout	Energy:    -660.7780330
C          6.50464        1.45425       -1.60166
C          6.65731        0.49650       -0.58114
C          5.25638        2.02804       -1.89636
C          5.49891        0.13168        0.14207
C          4.11606        1.65277       -1.16084
C          4.24795        0.69581       -0.13410
C          9.17927       -0.88233        4.35616
C          8.01333       -0.14086       -0.29222
C          8.45421       -0.00092        1.19982
C          9.92601        0.43258        1.41036
C         10.23271        0.95664        2.84329
C         10.38360        0.03029        4.07834
C         11.69750       -0.76823        4.11810
C          8.01404       -1.60721       -0.77430
C         10.94497       -0.59181        0.88918
O          2.87478        2.17546       -1.39288
H          7.38605        1.76184       -2.18747
H          5.16807        2.77752       -2.70081
H          5.57103       -0.61463        0.94949
H          3.35320        0.40720        0.43680
H          9.26361       -1.34693        5.36093
H          8.22084       -0.32449        4.32640
H          9.11200       -1.71163        3.62078
H          8.75367        0.41528       -0.91170
H          7.81239        0.76518        1.68266
H          8.24743       -0.94983        1.74058
H         10.04740        1.34435        0.77798
H         11.17171        1.55016        2.77536
H          9.44121        1.70015        3.08565
H         10.43924        0.74533        4.93249
H         11.83999       -1.23083        5.11733
H         12.57643       -0.11721        3.92869
H         11.72089       -1.58973        3.37328
H          8.99798       -2.08836       -0.60700
H          7.77765       -1.66848       -1.85548
H          7.24844       -2.20043       -0.23079
H         11.98420       -0.25980        1.09075
H         10.85563       -0.72712       -0.20797
H         10.81578       -1.59016        1.35769
H          2.94329        2.81655       -2.12590
