41
NORTRIPTYLINE.gamout	Energy:    -790.8209198
N          4.60561       -1.76717       -0.23157
C         -2.05411        0.85076       -1.73749
C         -0.57055        1.20763       -1.94599
C         -2.41305       -0.20282       -0.69194
C          0.05403        1.84568       -0.72631
C         -0.06271       -0.41445        0.37807
C         -1.51369       -0.78171        0.25173
C          0.28621        1.04172        0.41935
C          0.87922       -1.39203        0.50308
C         -3.75913       -0.63856       -0.69010
C          0.38516        3.21447       -0.68411
C         -2.01540       -1.75897        1.15259
C          0.83537        1.62985        1.57955
C          2.36484       -1.21509        0.65724
C         -4.23539       -1.60970        0.20040
C          0.93678        3.79189        0.47274
C          3.17655       -1.99578       -0.39430
C         -3.35135       -2.17722        1.13317
C          1.15993        2.99675        1.60937
C          5.43408       -2.43773       -1.22211
H         -2.47351        0.51044       -2.71041
H         -2.60931        1.78534       -1.49137
H         -0.49414        1.89982       -2.81040
H         -0.00682        0.28888       -2.22150
H          0.52511       -2.43893        0.44623
H         -4.45328       -0.19943       -1.42697
H          0.21220        3.83711       -1.57813
H         -1.32636       -2.17444        1.90429
H          1.00055        1.00286        2.47027
H          2.67153       -1.58046        1.66862
H          2.65300       -0.14558        0.61177
H          2.88772       -3.08447       -0.35764
H          2.88394       -1.64550       -1.41074
H         -5.29235       -1.91892        0.16829
H          1.19199        4.86361        0.48539
H         -3.70377       -2.93482        1.85115
H          1.58691        3.44065        2.52284
H          4.89320       -2.05220        0.71418
H          5.31264       -3.55425       -1.26832
H          6.50563       -2.21811       -1.03411
H          5.19353       -2.04854       -2.23566
