15
O-BROMOTOLUENE.gamout	Energy:   -2844.8822200
C          6.33161        1.88717       -0.67889
C          6.86153        0.63100       -0.34319
C          4.93960        2.06787       -0.72791
C          4.08619        0.98977       -0.44116
C          4.63819       -0.25838       -0.10800
C          6.03552       -0.47760       -0.04769
Br         3.43154       -1.70159        0.27381
C          6.62788       -1.81775        0.31089
H          7.00888        2.72621       -0.90237
H          7.95460        0.49248       -0.30544
H          4.50994        3.04760       -0.98957
H          2.99350        1.11213       -0.47461
H          7.73493       -1.77869        0.30165
H          6.29848       -2.14717        1.31921
H          6.30046       -2.60568       -0.40029
