14
O-CHLOROANILINE.gamout	Energy:    -746.8999701
C          6.32733        1.88934       -0.68186
C          6.86492        0.63507       -0.36317
C          4.93479        2.08527       -0.71800
C          4.08384        1.00320       -0.43478
C          4.62547       -0.24915       -0.11625
C          6.03040       -0.47406       -0.06489
Cl         3.54793       -1.60682        0.21817
N          6.54761       -1.69979        0.30989
H          7.00917        2.72517       -0.90517
H          7.95800        0.49473       -0.33229
H          4.50930        3.06900       -0.96736
H          2.98984        1.11711       -0.46187
H          5.90096       -2.49077        0.26415
H          7.50725       -1.90698        0.03194
