16
O-CRESOL.gamout	Energy:    -346.5343585
C          6.26529        2.00413       -0.68238
C          6.86343        0.77594       -0.34000
C          4.86516        2.12588       -0.70805
C          4.06093        1.01991       -0.39130
C          4.66934       -0.20266       -0.05024
C          6.06837       -0.35526       -0.01608
C          6.73687       -1.65729        0.34812
O          8.22257        0.60813       -0.29949
H          6.90463        2.86942       -0.92959
H          4.40873        3.09135       -0.97736
H          2.96368        1.10544       -0.40848
H          4.04178       -1.07424        0.19933
H          7.39942       -1.53723        1.23203
H          5.98864       -2.44131        0.57870
H          7.38405       -2.02602       -0.47641
H          8.64486        1.45452       -0.54035
