24
O-CYMENE.gamout	Energy:    -389.2106759
C          1.03124        2.63561        3.49497
C          1.71925        2.08838        2.22628
C          1.08600        0.75296        1.77794
C          3.23445        1.96145        2.40899
C          4.15693        2.68642        1.60190
C          3.74016        1.09671        3.40508
C          3.69741        3.63519        0.51304
C          5.54106        2.51305        1.82778
C          5.11782        0.93622        3.61864
C          6.02687        1.65070        2.82267
H          1.14519        1.93759        4.35145
H          1.46070        3.61164        3.80232
H         -0.05714        2.77901        3.32500
H          1.53348        2.82280        1.41522
H          1.55342        0.37639        0.84471
H          1.20827       -0.03369        2.55255
H         -0.00256        0.87352        1.59230
H          3.03351        0.53061        4.03424
H          4.56364        4.09804       -0.00052
H          3.08811        3.12327       -0.26254
H          3.07335        4.46181        0.91660
H          6.25465        3.07459        1.20185
H          5.47910        0.25370        4.40442
H          7.11226        1.53840        2.97408
