12
O-DICHLOROBENZENE.gamout	Energy:   -1151.0728909
C          1.28358       -1.40552        0.00023
C          1.28359        1.40549       -0.00037
C          2.49855       -0.70294        0.00009
C          2.49855        0.70291        0.00011
C          0.06164       -0.70763        0.00008
C          0.06164        0.70762       -0.00017
Cl        -1.43640       -1.60015       -0.00005
Cl        -1.43639        1.60014        0.00007
H          1.26534       -2.50535       -0.00307
H          1.26535        2.50533       -0.00037
H          3.44800       -1.26007        0.00027
H          3.44801        1.26003        0.00033
