20
O-ETHYLANILINE.gamout	Energy:    -365.9650116
C          7.07992        3.82398       -1.83588
C          6.94064        3.28145       -0.39701
C          6.12395        2.00717       -0.28899
C          6.71513        0.73756       -0.57189
C          4.76567        2.04896        0.07884
N          8.07192        0.63774       -0.88507
C          5.92072       -0.43141       -0.46388
C          3.98065        0.88772        0.18412
C          4.57222       -0.35750       -0.08876
H          7.69287        4.74948       -1.86077
H          7.55751        3.08776       -2.51811
H          6.08552        4.06040       -2.26748
H          6.46848        4.06410        0.23411
H          7.95221        3.11239        0.03813
H          4.31475        3.03167        0.30006
H          8.36875       -0.25049       -1.29325
H          8.50059        1.44208       -1.34478
H          6.38010       -1.41111       -0.67911
H          2.92211        0.95608        0.47847
H          3.97989       -1.28362       -0.01195
