21
O-ETHYLTOLUENE.gamout	Energy:    -349.9284062
C          1.07049        2.90657        2.02364
C          2.03234        2.26377        1.00400
C          3.46761        2.75032        1.13104
C          4.37913        2.20867        2.07986
C          3.90187        3.80873        0.29923
C          4.01658        1.06967        3.01333
C          5.68471        2.74671        2.15159
C          5.19870        4.33523        0.38519
C          6.09880        3.79861        1.32175
H          0.02430        2.57708        1.84935
H          1.34065        2.63782        3.06609
H          1.09453        4.01361        1.94955
H          1.98711        1.15739        1.10027
H          1.67061        2.48747       -0.02295
H          3.19396        4.22296       -0.43862
H          4.68636        0.19715        2.85419
H          4.13428        1.37117        4.07613
H          2.97713        0.71668        2.88163
H          6.39457        2.32373        2.88280
H          5.50719        5.16013       -0.27673
H          7.12277        4.19696        1.40450
