19
O-ETHYLPHENOL.gamout	Energy:    -385.8162914
C          7.05459        4.15232       -0.61110
C          6.88634        2.99841       -1.62041
C          6.08708        1.83010       -1.07983
C          6.68255        0.90474       -0.18155
C          4.73679        1.62661       -1.42454
O          7.99761        1.10995        0.14678
C          5.94135       -0.17513        0.33797
C          3.98623        0.55399       -0.90968
C          4.59502       -0.34980       -0.02425
H          7.64090        4.98485       -1.05349
H          6.06988        4.55762       -0.29776
H          7.58671        3.80677        0.29832
H          7.89232        2.64104       -1.93026
H          6.38401        3.37779       -2.53605
H          4.26430        2.33543       -2.12536
H          8.27956        0.39645        0.75015
H          6.42718       -0.88333        1.03204
H          2.93285        0.42427       -1.20229
H          4.02633       -1.19793        0.38892
