13
O-FLUOROPHENOL.gamout	Energy:    -406.4034420
F          7.15389        2.86038       -0.93601
C          6.31699        1.83955       -0.66501
C          6.87433        0.58100       -0.32896
C          4.93400        2.03071       -0.71818
O          8.23229        0.47818       -0.29966
C          5.99322       -0.48157       -0.04737
C          4.06570        0.95891       -0.43422
C          4.59945       -0.29561       -0.09925
H          4.55506        3.02906       -0.98488
H          8.46424       -0.43800       -0.05531
H          6.41308       -1.46781        0.21583
H          2.97652        1.11050       -0.47644
H          3.93267       -1.14246        0.12517
