19
O-METHYLSTYRENE.gamout	Energy:    -348.6998216
C          0.88306        3.07659        0.79733
C          2.05129        3.76296        0.78680
C          3.45439        3.30418        0.77595
C          3.91088        1.98050        1.07939
C          4.42546        4.28858        0.44794
C          2.98113        0.85922        1.47892
C          5.29607        1.71644        1.02041
C          5.79428        4.00183        0.38610
C          6.23541        2.70002        0.67328
H          0.81387        1.98105        0.79754
H         -0.07133        3.62686        0.78241
H          1.96500        4.86559        0.75230
H          4.07670        5.31130        0.22860
H          2.37269        0.49794        0.62078
H          3.55509       -0.00803        1.86200
H          2.26807        1.17664        2.26859
H          5.64467        0.69845        1.26178
H          6.51380        4.79245        0.12081
H          7.30771        2.45043        0.63745
