15
O-NITROPHENOL.gamout	Energy:    -511.6353885
C          6.31527        1.81471       -0.65821
C          6.85363        0.55313       -0.32140
C          4.90089        2.03475       -0.71937
N          7.23527        2.90360       -0.94700
C          5.99968       -0.51114       -0.03967
C          4.05757        0.93113       -0.42687
O          4.35638        3.20943       -1.03350
C          4.59800       -0.31165       -0.09520
O          6.73701        4.02598       -1.24771
O          8.44552        2.71027       -0.89323
H          7.94768        0.45311       -0.29294
H          6.41225       -1.49645        0.22310
H          2.97080        1.09632       -0.47268
H          5.15025        3.82093       -1.19516
H          3.91896       -1.15024        0.12681
