17
O-NITROTOLUENE.gamout	Energy:    -475.7352962
C          6.31790        1.87714       -0.67149
C          6.90456        0.63207       -0.34345
C          4.92889        2.07114       -0.70903
C          4.05982        1.00311       -0.42459
C          4.59861       -0.24852       -0.10749
C          5.99445       -0.42285       -0.06328
N          6.46484       -1.79008        0.29718
C          8.40958        0.51247       -0.32763
O          5.63266       -2.70144        0.28531
O          7.65504       -1.93532        0.59557
H          6.98860        2.71978       -0.90460
H          4.52433        3.06305       -0.96509
H          2.96829        1.14260       -0.45192
H          3.96523       -1.11875        0.11245
H          8.86762        1.44896       -0.70298
H          8.78637        0.31264        0.69548
H          8.76507       -0.33531       -0.94576
