21
O-PHENETIDINE.gamout	Energy:    -441.1212246
C          6.38290        1.88084       -0.68358
C          6.86816        0.62807       -0.26914
C          5.00230        2.11415       -0.79512
C          4.06855        1.09778       -0.48418
N          2.69069        1.28438       -0.53929
C          4.57176       -0.16634       -0.05847
O          3.65572       -1.17240        0.21255
C          5.95123       -0.39382        0.04140
C          3.24396       -1.25096        1.59240
C          2.28020       -2.41654        1.74223
H          7.08729        2.69055       -0.93274
H          7.95071        0.44420       -0.19138
H          4.63302        3.09877       -1.12721
H          2.36221        2.02955       -1.15631
H          2.17077        0.40768       -0.64401
H          6.29235       -1.39305        0.35566
H          4.14324       -1.39394        2.23683
H          2.76636       -0.28998        1.89809
H          1.95532       -2.51430        2.79832
H          1.37628       -2.27332        1.11481
H          2.76271       -3.36652        1.43445
