16
O-PHENYLENEDIAMINE.gamout	Energy:    -342.7177679
N          7.15058        2.95485       -1.00424
C          6.34731        1.84882       -0.66952
C          6.86829        0.57976       -0.35211
C          4.92937        2.02807       -0.71668
C          6.01644       -0.50214       -0.06062
C          4.62487       -0.31757       -0.07432
C          4.08965        0.94141       -0.40580
N          4.45041        3.31656       -1.01864
H          6.81778        3.82355       -0.56466
H          8.14558        2.81585       -0.80535
H          7.96292        0.44555       -0.32267
H          6.44709       -1.48469        0.18792
H          3.94801       -1.15363        0.16130
H          2.99643        1.08632       -0.43755
H          4.95462        3.74539       -1.80640
H          3.44021        3.35227       -1.18367
