18
O-TOLUIC_ACID.gamout	Energy:    -459.8066523
O          0.92237        1.94091        1.68206
C          1.62819        2.95330        1.10148
O          1.05810        3.89368        0.56685
C          3.11891        2.80430        1.17920
C          3.82118        1.72019        1.78953
C          3.84020        3.86208        0.57536
C          3.15675        0.53986        2.46315
C          5.23387        1.76240        1.75586
C          5.23867        3.87710        0.55832
C          5.93978        2.81559        1.15489
H         -0.01918        2.18928        1.54457
H          3.25565        4.67474        0.11827
H          2.49555       -0.01240        1.76557
H          3.92125       -0.16199        2.85148
H          2.51250        0.85554        3.30823
H          5.79338        0.93450        2.22105
H          5.77859        4.71060        0.08272
H          7.04152        2.80463        1.15385
