17
O-TOLUIDINE.gamout	Energy:    -326.6830276
N          1.74781       -1.47978       -0.00089
C          0.63210        0.69066       -0.00020
C          0.58230       -0.73851       -0.00049
C         -0.57897        1.40652        0.00021
C         -0.68084       -1.38420       -0.00030
C          1.96984        1.39263       -0.00040
C         -1.82956        0.76381        0.00039
C         -1.86912       -0.64136        0.00010
H         -0.53476        2.50903        0.00041
H         -0.71859       -2.48658       -0.00052
H          2.57834        1.12783        0.89487
H          2.57794        1.12810       -0.89603
H          1.84676        2.49351       -0.00017
H         -2.75904        1.35337        0.00070
H         -2.83633       -1.16954        0.00020
H          2.66051       -1.03429       -0.00099
H          1.71446       -2.49581       -0.00110
