12
OCTAFLUORO-2-BUTENE.gamout	Energy:    -950.4011159
C          1.32065        1.68375        0.02030
F          1.52770        2.99740        0.21904
F          2.50714        1.10138       -0.25913
F          0.86087        1.14435        1.16974
C          0.33335        1.41609       -1.10022
F          0.08392        0.10731       -1.22990
C         -0.28058        2.28253       -1.93932
F         -1.11610        1.78487       -2.85591
C         -0.15584        3.80871       -1.99453
F         -0.59143        4.38568       -0.85451
F          1.12140        4.19537       -2.19895
F         -0.90286        4.27258       -3.01131
