40
OCTAMETHYLCYCLOTETRASILOXANE.gamout	Energy:   -1777.9224591
Si         1.95759        0.47977        0.19090
O          0.80048        1.60758        0.64085
O          1.30601       -1.06190        0.24842
C          2.57021        0.85358       -1.55382
C          3.31726        0.55230        1.48634
Si        -0.63938        2.36398        0.22980
O         -1.73339        1.25804       -0.39129
C         -0.34701        3.64161       -1.12200
C         -1.31841        3.12928        1.80921
Si         0.20132       -2.17194       -0.35030
C          0.87744       -2.97505       -1.91240
C         -0.10606       -3.41709        1.02861
O         -1.22961       -1.41401       -0.78609
Si        -2.39447       -0.28000       -0.37534
C         -3.08525       -0.66960        1.33751
C         -3.70196       -0.32348       -1.72632
H          1.74390        0.80968       -2.29476
H          3.01798        1.86814       -1.60876
H          3.34491        0.12392       -1.86955
H          4.11964       -0.18532        1.27414
H          3.78013        1.56057        1.53322
H          2.90283        0.32213        2.49041
H          0.00701        3.15849       -2.05679
H         -1.28920        4.17764       -1.36226
H          0.40913        4.39598       -0.81885
H         -2.28350        3.64672        1.62498
H         -1.48834        2.35730        2.58866
H         -0.60467        3.87166        2.22409
H          1.05648       -2.21903       -2.70538
H          1.83688       -3.49897       -1.71729
H          0.15659       -3.71706       -2.31563
H          0.83101       -3.95554        1.28311
H         -0.45874       -2.91110        1.95178
H         -0.86746       -4.17213        0.74037
H         -2.29019       -0.64533        2.11286
H         -3.86538        0.06279        1.63234
H         -3.54302       -1.68090        1.35938
H         -4.17384       -1.32547       -1.80540
H         -4.50334        0.42088       -1.53485
H         -3.24570       -0.08391       -2.70988
