20
OHEMIM+1.gamout	Energy:    -419.4453712
C         -3.56249        1.10966        0.72993
N         -2.36123        0.44690        0.19636
H         -4.22093        1.37901       -0.11484
H         -3.27767        2.03121        1.27262
H         -4.10603        0.42391        1.40853
C         -2.14715        0.07932       -1.12394
C         -0.91524       -0.53518       -1.18095
N         -0.40024       -0.53753        0.10784
C         -1.28920        0.06656        0.92519
C          0.93002       -1.04241        0.49591
C          2.08230       -0.06895        0.13017
H          1.09437       -2.00581       -0.02624
H          0.90937       -1.24857        1.58419
O          3.31900       -0.70100        0.32034
H          1.97068        0.88201        0.70258
H          2.00089        0.19054       -0.94786
H          3.61356       -0.57356        1.24175
H         -1.16811        0.21017        2.00542
H         -2.88275        0.27695       -1.91142
H         -0.37597       -0.97573       -2.02698
