80
OMA+1.gamout	Energy:   -1038.9371278
C          2.09781       -0.77274        0.72686
C          1.28985       -1.66961       -0.22418
C         -0.21125       -1.72030        0.10167
C         -1.01957       -2.60773       -0.85862
C         -2.52689       -2.62813       -0.52973
C         -3.26835       -3.57417       -1.47574
C          3.59856       -0.71674        0.40009
N         -4.80879       -3.62157       -1.39635
C          4.39510        0.19418        1.34299
C         -5.32670       -3.53996        0.04435
C         -5.20558       -6.49067        5.77206
C         -5.53528       -5.33311        4.81745
C         -5.07760       -5.58017        3.37161
C         -5.40569       -4.42412        2.41396
C         -4.93531       -4.69230        0.96996
C         -5.65936       -6.25101        7.22092
C         -5.32092       -7.40951        8.16658
C         -6.11814        3.75752       -3.49583
C         -6.53405        2.27876       -3.53241
C         -5.62234        1.35666       -2.70763
C         -6.02270       -0.12505       -2.79029
C         -5.12785       -1.05014       -1.93704
C         -5.46228       -2.50904       -2.23966
C         -7.02823        4.67555       -4.32734
C         -6.60556        6.14921       -4.29540
C         -5.24939       -4.92114       -2.02479
H          1.96268       -1.12873        1.77494
H          1.67885        0.26011        0.70423
H          1.70619       -2.70336       -0.20193
H          1.42566       -1.31257       -1.27152
H         -0.62770       -0.68677        0.08490
H         -0.35090       -2.08525        1.14533
H         -0.61637       -3.64568       -0.83341
H         -0.87444       -2.25036       -1.90352
H         -2.92353       -1.59563       -0.59255
H         -2.65779       -2.95744        0.52271
H         -2.92859       -4.61356       -1.29730
H         -3.04014       -3.33701       -2.53537
H          3.72826       -0.37201       -0.65155
H          4.01780       -1.74849        0.43140
H          4.02171        1.24048        1.30710
H          5.47111        0.21715        1.07446
H          4.32142       -0.14780        2.39763
H         -6.43029       -3.46651       -0.04246
H         -4.96327       -2.57537        0.44456
H         -4.10673       -6.67812        5.75741
H         -5.67304       -7.42785        5.39005
H         -5.06661       -4.39580        5.19689
H         -6.63390       -5.14579        4.82903
H         -5.54634       -6.51663        2.99110
H         -3.97905       -5.76683        3.35794
H         -4.93860       -3.48488        2.78811
H         -6.50437       -4.24027        2.41746
H         -3.83358       -4.84174        0.97048
H         -5.38644       -5.64602        0.62224
H         -6.75802       -6.06677        7.23330
H         -5.19434       -5.31166        7.59781
H         -5.80193       -8.35581        7.83857
H         -5.66367       -7.20504        9.20133
H         -4.22572       -7.59274        8.20774
H         -5.06878        3.85412       -3.85957
H         -6.10409        4.11191       -2.43889
H         -6.54933        1.92687       -4.59003
H         -7.58231        2.18049       -3.16744
H         -5.62619        1.68481       -1.64267
H         -4.56974        1.46999       -3.05552
H         -5.98759       -0.45518       -3.85399
H         -7.08296       -0.24445       -2.47100
H         -5.27988       -0.81396       -0.86195
H         -4.06421       -0.83792       -2.17245
H         -6.55348       -2.67873       -2.12986
H         -5.19773       -2.74752       -3.28972
H         -8.07573        4.57947       -3.96147
H         -7.04475        4.31464       -5.38132
H         -6.62253        6.55498       -3.26130
H         -7.28101        6.77888       -4.90947
H         -5.57577        6.28483       -4.68950
H         -4.83215       -5.77002       -1.45749
H         -4.87825       -4.95584       -3.06572
H         -6.35403       -4.97066       -2.02162
