37
OMIM+1.gamout	Energy:    -579.9927060
C         -0.74679       -0.21734        0.51071
C          0.12553        0.66616       -0.39380
N          1.25903        1.27806        0.33855
H         -0.45613        1.49913       -0.83798
H          0.55908        0.08893       -1.23556
C          2.46549        0.70732        0.52727
C          2.45832        2.63519        1.62866
C          1.23088        2.48264        1.02313
C          4.60358        1.27321        1.71083
H          0.35160        3.13566        1.02264
N          3.21156        1.51613        1.30907
H          2.79155       -0.25081        0.10552
H          2.85454        3.44790        2.24634
H          4.80515        0.18700        1.68543
H          4.74763        1.64123        2.74342
H          5.29985        1.79818        1.02649
C         -1.92427       -0.85282       -0.24903
C         -2.80452       -1.74848        0.64237
C         -3.98847       -2.39735       -0.09958
C         -4.87845       -3.28093        0.79227
C         -6.04888       -3.94358        0.04630
C         -6.93357       -4.81576        0.94513
H         -1.12658        0.39607        1.35849
H         -0.11122       -1.01372        0.96009
H         -1.52937       -1.44904       -1.10339
H         -2.54864       -0.04895       -0.70128
H         -3.19014       -1.14593        1.49734
H         -2.17187       -2.54568        1.09763
H         -3.59795       -3.00596       -0.94827
H         -4.61183       -1.59905       -0.56539
H         -4.25337       -4.07146        1.26983
H         -5.28025       -2.66884        1.63348
H         -5.64677       -4.55999       -0.79029
H         -6.67024       -3.15461       -0.43652
H         -7.75204       -5.28925        0.36643
H         -6.34993       -5.63128        1.42372
H         -7.40241       -4.22179        1.75887
