42
OMPYR+1.gamout	Energy:    -566.3408464
N          0.04505       -0.13625       -0.28621
C         -0.59052        1.08820       -0.99316
C          1.19620        0.45188        0.57195
C          1.35890        1.90110        0.11193
H          2.09258       -0.18424        0.45074
H          0.87290        0.39717        1.62962
C         -0.08353        2.31009       -0.22861
H         -1.68889        0.95536       -1.01711
H         -0.21216        1.08904       -2.03422
H         -0.67757        2.48300        0.69433
H         -0.15399        3.22923       -0.84319
H          2.00690        1.96084       -0.78812
H          1.82775        2.52511        0.89775
C         -0.97651       -0.80209        0.59568
H         -1.42923       -0.03989        1.25681
H         -0.48581       -1.57846        1.20923
H         -1.75879       -1.26314       -0.03668
C          0.57511       -1.11145       -1.34486
C          1.13248       -2.43718       -0.83308
H          1.34869       -0.54168       -1.90065
H         -0.27155       -1.28556       -2.04203
C          1.68150       -3.28293       -2.00473
H          0.34416       -3.01519       -0.30825
H          1.95047       -2.26648       -0.09845
C          2.34008       -4.60367       -1.56170
H          0.85260       -3.49857       -2.71669
H          2.42473       -2.67742       -2.56979
C          1.40362       -5.60540       -0.86540
H          3.20479       -4.37636       -0.89650
H          2.77832       -5.08424       -2.46384
C          2.10182       -6.92203       -0.48248
H          0.53609       -5.82703       -1.53015
H          0.97358       -5.14465        0.05305
C          1.19092       -7.96415        0.19316
H          2.96385       -6.69528        0.18703
H          2.54324       -7.37161       -1.40005
C          0.62877       -7.54559        1.55934
H         -0.04528       -6.66478        1.48764
H          1.44253       -7.28864        2.27100
H          0.03747       -8.36583        2.01605
H          1.76948       -8.90602        0.31407
H          0.35194       -8.21719       -0.49463
