8
OXALIC_ACID.gamout	Energy:    -378.0607915
C          1.89527        2.18587        0.09755
C          3.08156        1.19349        0.14137
O          4.24698        1.86520        0.05642
O          2.97219       -0.01015        0.23772
O          0.72992        1.51433        0.18464
O          2.00459        3.38936       -0.00070
H          4.95256        1.18101        0.08987
H          0.02432        2.19848        0.15078
