8
OXAZOLE.gamout	Energy:    -245.8970596
C          1.02982        2.03621        0.04874
C          0.85121        0.67799        0.13063
N          2.39280        2.31677        0.03115
O          2.09314        0.09505        0.16523
C          2.96222        1.14567        0.10146
H          0.27306        2.82929        0.00138
H         -0.01046        0.00439        0.17164
H          4.03174        0.90109        0.11570
