42
OXPRENOLOL.gamout	Energy:    -865.1667666
O         -0.22610       -0.82231       -0.90620
O         -2.03320       -0.24886       -3.08408
O          1.81000        0.66557       -0.25509
N         -3.14345        0.43355        0.41015
C         -2.61465        0.71982       -0.91510
C         -2.45201       -0.55664       -1.76117
C         -2.95280        1.49044        1.41981
C         -1.44001       -1.52546       -1.15318
C         -1.50760        1.47936        1.94255
C         -3.95493        1.27751        2.56124
C          0.80321       -1.47593       -0.30426
C          1.93095       -0.66372        0.04237
C          0.83167       -2.85169       -0.01660
C          3.04847       -1.25678        0.65395
C          1.96059       -3.43324        0.59912
C          3.06446       -2.64126        0.93047
C          2.92102        1.51903        0.01746
C          2.58435        2.90714       -0.44951
C          2.79653        4.02185        0.27155
H         -1.60878        1.17688       -0.81993
H         -3.24380        1.45012       -1.50011
H         -3.43204       -1.10722       -1.76840
H         -3.15192        2.50337        0.97370
H         -4.14334        0.20532        0.34101
H         -1.27061       -2.36591       -1.86569
H         -1.85398       -1.92469       -0.20014
H         -1.33512        2.32467        2.64101
H         -1.30489        0.52894        2.48003
H         -0.76485        1.55925        1.12348
H         -5.00429        1.33948        2.19901
H         -3.82690        2.04500        3.35104
H         -3.80807        0.27732        3.02194
H         -2.53521        0.53807       -3.36936
H         -0.02886       -3.48254       -0.27998
H          3.91831       -0.64253        0.92652
H          1.96297       -4.51342        0.81301
H          3.94906       -3.08654        1.41162
H          3.82184        1.14190       -0.52964
H          3.16946        1.51609        1.10551
H          2.16515        2.97174       -1.47002
H          2.57872        5.02206       -0.13585
H          3.20479        3.97815        1.29617
