26
P-AMINOAZOBENZENE.gamout	Energy:    -627.6740315
N          6.45656        3.99671       -0.60444
N          7.00506        2.85285       -0.47489
C          6.12396        1.76299       -0.40807
C          7.35774        5.08618       -0.66859
C          6.71017        0.48052       -0.27045
C          4.70666        1.85806       -0.46430
C          6.77260        6.36523       -0.82014
C          8.76940        4.97076       -0.59159
C          5.92313       -0.66883       -0.19206
C          3.91577        0.71655       -0.38657
C          7.57925        7.51085       -0.89434
C          9.56754        6.11792       -0.66594
C          4.50543       -0.57565       -0.24772
C          8.97877        7.39139       -0.81758
N          3.71689       -1.70563       -0.21255
H          7.80874        0.42095       -0.22494
H          4.26109        2.85867       -0.56686
H          5.67455        6.42418       -0.87772
H          9.20161        3.96609       -0.47491
H          6.39716       -1.65859       -0.08850
H          2.81692        0.80191       -0.43293
H          7.11538        8.50326       -1.01162
H         10.66439        6.02645       -0.60503
H          9.61440        8.28943       -0.87558
H          2.71850       -1.60142       -0.03275
H          4.12980       -2.58354        0.10170
