14
P-BROMOBENZALDEHYDE.gamout	Energy:   -2918.8392877
Br         7.85724        4.05620       -1.27242
C          6.63128        2.65583       -0.86455
C          7.12858        1.40710       -0.44592
C          6.21873        0.38228       -0.14850
C          5.24587        2.89197       -0.98909
C          4.82872        0.59638       -0.26591
C          4.35186        1.85868       -0.68829
C          3.87075       -0.49610        0.05162
O          2.65589       -0.39915       -0.02228
H          8.21274        1.24559       -0.35626
H          6.59178       -0.60251        0.18072
H          4.88152        3.87617       -1.31884
H          3.26321        2.00421       -0.77361
H          4.36411       -1.46293        0.37949
