15
P-CHLOROBENZOTRIFLUORIDE.gamout	Energy:   -1028.3673555
F          6.77134        4.19693       -0.52253
C          7.25023        3.01520       -0.98610
F          7.40408        3.15052       -2.33025
F          8.48879        2.83745       -0.46199
C          6.32996        1.86273       -0.64426
C          6.85933        0.57021       -0.46394
C          4.93972        2.06740       -0.55414
C          6.01058       -0.51315       -0.19549
C          4.08111        0.99111       -0.28641
C          4.62343       -0.29507       -0.10908
Cl         3.55889       -1.64122        0.22876
H          7.94596        0.40866       -0.52524
H          4.52347        3.07743       -0.68586
H          6.41693       -1.52445       -0.04936
H          2.99470        1.14310       -0.20995
