13
P-CHLOROPHENOL.gamout	Energy:    -766.7462181
C          6.26495        1.86597       -0.48836
C          7.08220        0.77159       -0.13161
C          4.87646        1.70799       -0.59191
C          4.29277        0.45209       -0.33933
C          5.09540       -0.64461        0.01656
Cl         2.55346        0.25358       -0.47059
C          6.48663       -0.48296        0.11951
O          8.42741        0.98521       -0.04599
H          6.73715        2.84078       -0.68233
H          4.23946        2.56052       -0.86983
H          4.63266       -1.62304        0.21213
H          7.11589       -1.34529        0.39896
H          8.86172        0.14853        0.20754
