14
P-CHLOROANILINE.gamout	Energy:    -746.8974696
C          6.34277        1.86923       -0.68773
C          6.86262        0.59522       -0.34215
C          4.93285        2.02293       -0.72546
N          7.18848        2.94898       -0.92306
C          4.07912        0.95099       -0.43165
C          4.61783       -0.30244       -0.09193
C          6.01203       -0.47908       -0.04761
Cl         3.54832       -1.64789        0.27411
H          7.95424        0.44697       -0.30030
H          4.49960        3.00222       -0.98757
H          6.79621        3.72596       -1.45768
H          8.14837        2.72577       -1.19170
H          2.98764        1.08435       -0.46775
H          6.42956       -1.46199        0.21694
