15
P-CHLOROBENZOIC_ACID.gamout	Energy:    -880.0242880
C          0.84623        1.87033       -0.46814
C          1.37570        0.61642       -0.13985
C         -0.55216        2.02952       -0.52540
C         -1.41894        0.95259       -0.25887
Cl        -1.22331        3.59208       -0.93496
C         -0.87651       -0.29777        0.06866
C          0.52322       -0.47599        0.13086
C          1.14995       -1.78750        0.47538
O          0.23123       -2.76506        0.71588
O          2.35235       -1.98932        0.54202
H          1.50322        2.72630       -0.68037
H          2.46369        0.45818       -0.08659
H         -2.50728        1.10163       -0.30998
H         -1.54128       -1.14793        0.27939
H          0.75746       -3.56713        0.92842
