15
p-CHLOROTOLUENE.gamout	Energy:    -730.8631728
C         -2.91953        1.19910        0.04077
C         -1.52108        1.33698        0.04081
C         -0.71821        0.18555       -0.00023
C         -1.30355       -1.09317       -0.04117
C         -3.53856       -0.06833        0.00032
C         -2.70166       -1.20709       -0.04070
C         -5.04401       -0.21403        0.00051
H         -5.40112       -0.74251       -0.90929
H         -5.54835        0.77203        0.03587
H         -5.39458       -0.80355        0.87461
H         -3.54443        2.10692        0.07317
H         -1.05175        2.33131        0.07239
H         -3.15336       -2.21276       -0.07278
H         -0.66328       -1.98711       -0.07314
Cl         1.02970        0.34278       -0.00075
