20
P-COUMARIC_ACID.gamout	Energy:    -573.0400002
C          0.83097       -0.45984       -0.91900
C          0.23754       -0.36376        0.30357
C         -1.17392       -0.55270        0.63319
C          2.27261       -0.25107       -1.15404
C         -1.59134       -0.40488        1.98011
C         -2.16891       -0.88055       -0.32890
O          2.97835        0.05205       -0.01906
O          2.81541       -0.33476       -2.24772
C         -2.92907       -0.57296        2.35700
C         -3.50510       -1.05091        0.03296
C         -3.89872       -0.89804        1.38387
O         -5.21422       -1.07510        1.68084
H          0.27005       -0.70384       -1.83449
H          0.89472       -0.11270        1.15449
H         -0.84243       -0.15098        2.74776
H         -1.88640       -1.00458       -1.38554
H          3.90494        0.16105       -0.32489
H         -3.22694       -0.45178        3.41237
H         -4.27210       -1.30441       -0.71418
H         -5.34263       -0.94068        2.63984
