16
P-CRESOL.gamout	Energy:    -346.5325845
C          0.38168        1.08129        1.84805
C          1.89328        1.04058        1.91287
C          2.66363        0.47722        0.87572
C          2.58986        1.57921        3.02053
C          4.06818        0.45028        0.93186
C          3.98833        1.56135        3.09371
C          4.74187        0.99396        2.04363
O          6.10413        0.99818        2.16003
H         -0.00319        0.51546        0.97582
H         -0.07997        0.64664        2.76038
H          0.00375        2.12363        1.76117
H          2.15690        0.04518       -0.00332
H          2.01968        2.02628        3.85226
H          4.64487        0.00110        0.10459
H          4.52113        1.98193        3.96019
H          6.48194        0.57563        1.36536
