24
P-CYMENE.gamout	Energy:    -389.2134989
C          1.25610        0.31678       -3.56894
C          0.99273        1.41837       -2.72294
C          1.60968       -0.93527       -3.04569
C          1.71550       -1.14436       -1.65118
C          1.44704       -0.04701       -0.80866
C          2.11902       -2.50156       -1.07749
C          1.09387        1.20942       -1.33263
C          0.61159        2.76530       -3.29695
C          1.09405       -3.60228       -1.42426
C          3.54442       -2.90433       -1.50979
H          1.18907        0.44615       -4.66257
H          1.81427       -1.76524       -3.74253
H          1.52302       -0.17687        0.28439
H          2.12583       -2.39069        0.03045
H          0.89653        2.04821       -0.64408
H         -0.35720        2.71671       -3.84016
H          1.36813        3.12515       -4.02703
H          0.51406        3.53437       -2.50494
H          1.01146       -3.74617       -2.52269
H          0.08388       -3.34801       -1.04258
H          1.39341       -4.57623       -0.98193
H          3.60116       -3.07665       -2.60598
H          3.86177       -3.84429       -1.00991
H          4.28156       -2.11450       -1.25742
