30
P-DIISOPROPYLBENZENE.gamout	Energy:    -467.7778000
C          0.74171        5.69510        3.02312
C          1.90355        6.05684        2.07738
C          2.47013        7.45267        2.40276
C          2.98985        4.98775        2.08158
C          3.72456        4.68717        3.24878
C          3.29919        4.25830        0.91863
C          4.72057        3.70238        3.24979
C          4.29843        3.27045        0.91982
C          5.03036        2.97032        2.08350
C          6.11089        1.89654        2.08045
C          7.50002        2.47762        2.40647
C          5.76157        0.73218        3.02678
H          1.08227        5.64604        4.07937
H          0.30291        4.70920        2.76736
H         -0.06655        6.45424        2.96701
H          1.49263        6.09672        1.04384
H          1.67600        8.22583        2.33939
H          3.27983        7.73389        1.69945
H          2.89070        7.48871        3.43037
H          3.51628        5.23297        4.18259
H          2.74562        4.46698       -0.01125
H          5.26785        3.50113        4.18425
H          4.51433        2.71842       -0.00931
H          6.15568        1.48528        1.04725
H          8.28131        1.69143        2.34398
H          7.53079        2.89896        3.43393
H          7.77380        3.28984        1.70317
H          6.52938       -0.06776        2.97165
H          4.78072        0.28258        2.77087
H          5.70823        1.07326        4.08266
