12
P-DIBROMOBENZENE.gamout	Energy:   -5379.1124552
C          0.85502        1.08392       -0.28745
C          1.38456       -0.17439        0.04845
C         -0.53829        1.25935       -0.33638
C         -1.38455        0.17439       -0.04845
C         -0.85502       -1.08392        0.28745
Br        -3.27798        0.41381       -0.11498
C          0.53829       -1.25935        0.33638
Br         3.27798       -0.41381        0.11498
H          1.52565        1.92653       -0.51104
H         -0.96179        2.24013       -0.59821
H         -1.52565       -1.92653        0.51104
H          0.96179       -2.24013        0.59821
