24
P-DIETHYLBENZENE.gamout	Energy:    -389.2139780
C         -0.10604       -1.13156        0.77634
C         -0.61333       -0.79213       -0.49640
C         -1.04588        0.51293       -0.78294
C         -0.98946        1.53236        0.19209
C         -0.48209        1.19284        1.46516
C         -0.04989       -0.11196        1.75168
C          0.30804       -2.55459        1.10302
H         -0.67004       -1.56669       -1.28019
H         -1.43828        0.74585       -1.78754
C         -1.40687        2.95452       -0.13285
H         -0.42600        1.96758        2.24881
H          0.34328       -0.34522        2.75591
H         -1.82464        3.43563        0.77839
H         -2.23147        2.93548       -0.87873
C         -0.25028        3.81750       -0.67773
H          0.14340        3.40146       -1.62834
H          0.59359        3.85542        0.04236
H         -0.58195        4.85928       -0.87116
H          0.70973       -3.04036        0.18705
C         -0.84745       -3.40746        1.66536
H          1.14319       -2.53802        1.83712
H         -1.26757       -2.95018        2.58530
H         -1.67484       -3.49326        0.93060
H         -0.50579       -4.43328        1.91768
