13
P-FLUOROPHENOL.gamout	Energy:    -406.4068979
C          6.33074        1.85884       -0.67011
C          6.87144        0.60776       -0.33605
C          4.94548        2.05714       -0.72532
F          7.16266        2.88967       -0.94361
C          6.01161       -0.46266       -0.05245
C          4.61170       -0.28361       -0.10256
C          4.08619        0.98182       -0.44047
O          3.82314       -1.36298        0.18360
H          7.96434        0.48469       -0.30169
H          4.54919        3.04875       -0.99018
H          6.40941       -1.45382        0.21210
H          2.99372        1.13097       -0.48217
H          2.88814       -1.09291        0.11155
