16
P-HYDROXYBENZOIC_ACID.gamout	Energy:    -495.6968108
O          7.41009        4.06450       -0.68963
C          7.83088        2.76559       -0.73851
O          9.00168        2.47026       -0.92752
C          6.72408        1.79025       -0.53960
C          7.03342        0.41013       -0.56656
C          5.38594        2.18841       -0.32659
C          6.03832       -0.55226       -0.38591
C          4.70034       -0.14663       -0.17306
O          3.76488       -1.11907       -0.00222
C          4.38145        1.23034       -0.14486
H          8.22146        4.59899       -0.83236
H          8.07991        0.11295       -0.73400
H          5.13637        3.25914       -0.30447
H          6.27010       -1.62760       -0.40509
H          2.89414       -0.69786        0.13355
H          3.33748        1.54702        0.02141
