25
P-N-BUTYLPHENOL.gamout	Energy:    -464.3810399
O         -4.06959        0.02312        0.69798
C          2.40555       -0.01785        0.24210
C          1.42201       -0.03883       -0.94710
C          3.88115        0.01478       -0.18302
C         -0.03907       -0.03863       -0.54117
C          4.86369        0.02902        0.99383
C         -0.75488       -1.24349       -0.37736
C         -0.72716        1.16781       -0.27501
C         -2.09723       -1.25166        0.03598
C         -2.06579        1.17932        0.13863
C         -2.76370       -0.03675        0.29850
H          2.22195       -0.91001        0.88398
H          2.18134        0.86276        0.88707
H          1.62927       -0.93513       -1.57365
H          1.62501        0.84129       -1.59831
H          4.09208       -0.86638       -0.83217
H          4.05743        0.90543       -0.82921
H          4.74462       -0.87175        1.63377
H          4.70745        0.91599        1.64503
H          5.91763        0.05260        0.64656
H         -0.25415       -2.20415       -0.58518
H         -0.19934        2.12835       -0.40124
H         -2.63605       -2.20870        0.14968
H         -2.59589        2.12297        0.33919
H         -4.41531       -0.88780        0.75661
