15
P-NITROPHENOL.gamout	Energy:    -511.6246868
C          6.37838        1.85505       -0.66921
C          6.91409        0.58900       -0.33116
C          4.99474        2.03628       -0.71999
C          4.14508        0.95230       -0.43254
C          4.65885       -0.31040       -0.09565
N          2.68206        1.14580       -0.48606
C          6.04526       -0.49105       -0.04513
O          8.26506        0.47096       -0.29732
O          2.26543        2.26968       -0.78622
O          1.96671        0.17173       -0.22696
H          7.07084        2.68131       -0.88802
H          4.54903        3.00665       -0.97910
H          3.96046       -1.13051        0.12134
H          6.46213       -1.47780        0.21824
H          8.50085       -0.44488       -0.05285
