17
P-NITROTOLUENE.gamout	Energy:    -475.7392559
C          6.35377        1.85187       -0.63082
C          6.88191        0.59626       -0.30297
C          4.96046        1.99739       -0.70957
C          6.04004       -0.51266       -0.05056
C          4.64064       -0.32639       -0.14362
C          6.62145       -1.85347        0.33278
C          4.09253        0.92135       -0.47018
N          4.39229        3.32336       -1.05994
O          5.18621        4.24602       -1.26424
O          3.16343        3.41801       -1.12367
H          6.99398        2.72225       -0.83125
H          7.97519        0.47111       -0.24263
H          3.96719       -1.17870        0.04236
H          7.62500       -2.00389       -0.11303
H          6.73674       -1.93196        1.43656
H          5.96905       -2.69021        0.01164
H          3.00810        1.08061       -0.54807
