28
P-P-DDT.gamout	Energy:   -2839.0022512
C          7.33959        2.83515       -0.98065
C          6.34258        1.71388       -0.66733
C          8.57658        2.84266       -0.07644
C          6.68663        4.23960       -1.20111
C          9.82587        2.52023       -0.65077
C          8.53863        3.11529        1.30853
C          6.18593        0.67384       -1.60959
C          5.59540        1.63923        0.52880
Cl         7.94815        5.39276       -1.78991
Cl         5.40294        4.10177       -2.46662
Cl         5.93172        4.95129        0.28366
C          9.70299        3.07412        2.09101
C         10.93174        2.74899        1.49053
C         11.00000        2.46839        0.11566
Cl        12.38703        2.69292        2.46297
C          5.31640       -0.40332       -1.38093
C          4.57947       -0.44578       -0.18545
C          4.71510        0.57413        0.77246
Cl         3.48657       -1.78097        0.11474
H          7.71992        2.61917       -2.00063
H          9.88766        2.30341       -1.72978
H          7.59221        3.38159        1.79815
H          6.75728        0.70496       -2.55158
H          5.67993        2.42971        1.28642
H          9.66043        3.29214        3.16818
H         11.96431        2.21415       -0.34799
H          5.20506       -1.20585       -2.12440
H          4.13366        0.53005        1.70483
