21
P-PHENETIDINE.gamout	Energy:    -441.1218598
C          7.67959        5.28660       -0.94542
C          6.52509        4.31353       -0.74976
O          7.07000        3.00318       -0.63802
C          6.21627        1.94612       -0.44615
N          3.84878       -1.53016        0.21356
C          4.62190       -0.39046       -0.04768
C          6.03628       -0.47142       -0.13096
C          4.03191        0.88799       -0.16923
C          6.81628        0.67226       -0.32724
C          4.81187        2.04306       -0.36505
H          7.29924        6.32434       -1.03666
H          8.37777        5.24199       -0.08517
H          8.24793        5.03832       -1.86458
H          5.81401        4.36637       -1.61006
H          5.94259        4.57012        0.16848
H          2.87257       -1.46622       -0.08472
H          4.26990       -2.41387       -0.08301
H          6.52959       -1.45321       -0.03660
H          2.93541        0.98726       -0.10591
H          7.91292        0.60270       -0.39386
H          4.30547        3.01474       -0.45549
