24
P-PROPYLTOLUENE.gamout	Energy:    -389.2146016
C          0.02703        3.09178       -0.13805
C         -0.07655        3.39555       -1.64919
C          1.27183        3.57170       -2.32040
C          1.93390        4.81815       -2.30271
C          1.93903        2.48697       -2.92987
C          3.20893        4.97454       -2.87006
C          3.21504        2.64235       -3.49544
C          3.87653        3.88949       -3.47857
C          5.23037        4.06410       -4.13077
H         -0.63822        2.57401       -2.14727
H         -0.68491        4.31732       -1.79012
H          1.43916        5.68618       -1.83459
H          1.44902        1.49903       -2.96165
H          3.69586        5.96396       -2.84434
H          3.70862        1.77498       -3.96559
H          5.12809        4.24894       -5.22342
H          5.78397        4.92600       -3.70594
H          5.86157        3.15874       -4.01617
H          0.59420        3.91247        0.35543
H          0.64392        2.17601        0.00257
C         -1.33397        2.91531        0.54471
H         -1.89649        2.05608        0.11984
H         -1.97200        3.81713        0.42156
H         -1.22166        2.73351        1.63375
