12
P-QUINONE.gamout	Energy:    -381.1768332
O          1.00623       -0.06641       -0.51428
C          2.19873       -0.06167       -0.20270
C          2.95873       -1.33108       -0.00384
C          2.94930        1.21384       -0.00673
C          4.27095       -1.32573        0.34079
C          4.26153        1.21918        0.33790
C          5.02120       -0.05023        0.53794
O          6.21320       -0.04549        0.85143
H          2.38619       -2.26098       -0.15437
H          2.36994        2.13915       -0.15931
H          4.85049       -2.25104        0.49274
H          4.83424        2.14907        0.48782
