32
P-TERPHENYL.gamout	Energy:    -693.8535229
C          6.08506        1.14339        0.71093
C          5.29983        2.24276        1.13124
C          5.98398        3.43049        1.48145
C          3.81565        2.15258        1.20177
C          7.48105        1.22766        0.64408
C          7.37994        3.51445        1.41469
C          2.99953        3.25514        0.85514
C          3.17679        0.96059        1.61718
C          8.16513        2.41529        0.99432
C          1.60162        3.16942        0.92179
C          1.77891        0.87395        1.68252
C          9.64882        2.50551        0.92396
C          0.98333        1.97817        1.33538
C         10.46493        1.40291        1.27021
C         10.28812        3.69729        0.50890
C         11.86277        1.48834        1.20378
C         11.68593        3.78374        0.44381
C         12.48130        2.67946        0.79064
H          5.58993        0.21320        0.39478
H          5.41322        4.29661        1.84854
H          8.05190        0.36159        0.27707
H          7.87511        4.44459        1.73076
H          3.46907        4.18587        0.50249
H          3.78839        0.09659        1.91878
H          0.99021        4.03953        0.63862
H          1.30784       -0.06278        2.01674
H         -0.11424        1.91032        1.38705
H          9.99532        0.47217        1.62264
H          9.67689        4.56161        0.20756
H         12.47404        0.61800        1.48668
H         12.15706        4.72048        0.10981
H         13.57886        2.74715        0.73908
