26
P-TERT-BUTYLCATECHOL.gamout	Energy:    -539.5417336
O          3.35237        1.43531        0.61452
O          2.13386        3.73144       -0.02679
C         -0.83608       -1.22252       -0.02545
C         -0.09009        0.12987       -0.04177
C         -0.76614       -1.83483        1.39790
C         -0.17364       -2.19457       -1.03653
C         -2.32226       -1.06560       -0.41116
C          1.28726        0.17850        0.29057
C         -0.71015        1.34893       -0.37492
C          2.02543        1.37165        0.29609
C          0.01739        2.55623       -0.37503
C          1.37964        2.59304       -0.04442
H          0.28015       -2.01743        1.71879
H         -1.23327       -1.15958        2.14474
H         -1.29981       -2.80920        1.43355
H         -0.70028       -3.17321       -1.03884
H         -0.20947       -1.78298       -2.06668
H          0.89024       -2.38917       -0.78878
H         -2.82419       -2.05554       -0.38931
H         -2.44311       -0.65444       -1.43483
H         -2.86553       -0.40192        0.29329
H          1.82104       -0.75004        0.55941
H         -1.77529        1.38364       -0.64186
H         -0.49061        3.50018       -0.63965
H          3.65419        0.53085        0.82351
H          1.55663        4.47663       -0.28024
