16
P-TOLUNITRILE.gamout	Energy:    -363.5387941
C          6.34307        1.86971       -0.62903
C          6.87142        0.61455       -0.30352
C          4.94047        2.04564       -0.71833
C          4.08815        0.94035       -0.47629
C          4.39047        3.32989       -1.05536
C          4.63492       -0.30748       -0.15210
C          6.03251       -0.49579       -0.05587
C          6.61365       -1.83784        0.32558
N          3.94073        4.38014       -1.33121
H          7.01014        2.72344       -0.82074
H          7.96479        0.49095       -0.24125
H          2.99797        1.06980       -0.54905
H          3.96037       -1.15986        0.02983
H          7.62301       -1.98189       -0.10895
H          6.71506       -1.92568        1.42990
H          5.96855       -2.67416       -0.01118
