18
P-TOLUIC_ACID.gamout	Energy:    -459.8112803
C          6.34446        1.85014       -0.67331
C          6.88031        0.59881       -0.33513
C          4.94561        2.03214       -0.71729
C          6.04368       -0.49939       -0.03545
C          4.09900        0.94252       -0.41680
C          4.31638        3.33918       -1.06814
C          4.64294       -0.30223       -0.08055
C          6.62079       -1.85424        0.30582
O          5.23210        4.31393       -1.33792
O          3.11347        3.54678       -1.11820
H          7.00820        2.69641       -0.90297
H          7.97454        0.46904       -0.30113
H          3.01014        1.10053       -0.45177
H          3.97019       -1.14349        0.15488
H          7.69555       -1.78792        0.56741
H          6.08554       -2.31983        1.15913
H          6.52903       -2.55342       -0.55425
H          4.69951        5.11103       -1.55148
