17
P-TOLUIDINE.gamout	Energy:    -326.6830586
C          7.27945        3.05074       -0.99334
C          6.35893        1.89527       -0.66635
C          6.86505        0.60913       -0.37586
C          4.95476        2.04477       -0.66609
C          6.02001       -0.47545       -0.10251
C          4.61140       -0.31734       -0.10702
N          3.76547       -1.37468        0.22841
C          4.09524        0.97086       -0.39487
H          8.24941        2.96391       -0.46148
H          7.51180        3.09840       -2.08135
H          6.82754        4.02587       -0.71768
H          7.95641        0.44774       -0.36240
H          4.51646        3.03364       -0.88342
H          6.45338       -1.46336        0.12716
H          2.80407       -1.30250       -0.11063
H          4.15215       -2.31250        0.10337
H          3.00377        1.12981       -0.39551
