18
P-XYLENE.gamout	Energy:    -310.6489807
C          0.99806        0.84898        0.67315
C          1.80408        1.25038        1.88893
C          3.21595        1.23486        1.86735
C          1.17662        1.66644        3.08263
C          3.96609        1.62258        2.98856
C          1.92715        2.05445        4.20447
C          3.33811        2.04338        4.18134
C          4.14553        2.48119        5.38372
H          0.94482        1.67551       -0.07013
H         -0.04423        0.58517        0.94401
H          1.44706       -0.02245        0.15267
H          3.74044        0.90886        0.95318
H          0.07500        1.68445        3.13699
H          5.06772        1.59534        2.93769
H          1.40295        2.37124        5.12197
H          5.14339        1.99711        5.40541
H          3.62763        2.23988        6.33452
H          4.31706        3.58072        5.37699
