21
PARALDEHYDE.gamout	Energy:    -461.1937674
O         -1.24576        0.11344       -0.51660
O         -0.90487        1.42792        1.38729
O         -1.11092       -0.89310        1.58974
C         -1.50345        1.36805        0.09958
C         -1.70913       -0.95248        0.30137
C         -1.36396        0.36121        2.20748
C         -0.92787        2.47007       -0.76430
C         -1.34707       -2.26996       -0.34970
C         -0.63667        0.41285        3.53465
H         -2.61774        1.47695        0.22295
H         -2.82328       -0.84261        0.42450
H         -2.47730        0.47138        2.33829
H          0.16658        2.32823       -0.86068
H         -1.38754        2.44012       -1.77129
H         -1.12672        3.45686       -0.30303
H         -1.80965       -2.33682       -1.35358
H         -0.24622       -2.34005       -0.45172
H         -1.70769       -3.11166        0.27301
H          0.45163        0.30169        3.36106
H         -0.82839        1.38325        4.03213
H         -0.98602       -0.40814        4.19042
