28
PARAQUAT_DICHLORIDE.gamout	Energy:    -574.7410962
N          3.60767       -0.01228        0.00218
N         -3.60710        0.01307        0.00359
C          0.70192       -0.00330        0.00275
C         -0.70135        0.00408        0.00303
C          1.51667        1.21045        0.00282
C         -1.51037        1.22413        0.00494
C          1.51095       -1.22334        0.00239
C         -1.51610       -1.20966        0.00149
C          2.88322        1.18362        0.00250
C         -2.87697        1.20327        0.00520
C          2.87754       -1.20249        0.00211
C         -2.88265       -1.18284        0.00169
C          5.05589        0.01165        0.00186
C         -5.05532       -0.01086        0.00385
H          1.04101        2.20158        0.00302
H         -1.03118        2.21337        0.00643
H          1.03175       -2.21259        0.00240
H         -1.04044       -2.20079       -0.00019
H          3.48955        2.10204        0.00247
H         -3.47785        2.12535        0.00669
H          3.47843       -2.12457        0.00190
H         -3.48898       -2.10126        0.00041
H          5.44549       -1.02464        0.00162
H          5.46251        0.52832       -0.89840
H          5.46291        0.52807        0.90208
H         -5.44492        1.02542        0.00545
H         -5.46231       -0.52609       -0.89707
H         -5.46197       -0.52875        0.90340
