8
PENTAFLUOROETHANE.gamout	Energy:    -575.5831178
F          0.75810        1.10878       -1.23465
C          0.57182        0.01202       -0.47125
F          1.48350        0.00939        0.51476
F          0.75797       -1.08077       -1.24038
C         -0.86904        0.01056        0.09258
F         -1.04237       -1.09891        0.85602
F         -1.04248        1.11611        0.86165
H         -1.61111        0.01266       -0.73850
