13
PENTAFLUOROPHENOL.gamout	Energy:    -803.0147587
C          0.84350        1.41407       -0.37664
C          1.39337        0.16232       -0.04322
C         -0.55301        1.59285       -0.42578
F          1.65324        2.44342       -0.64941
F         -1.06783        2.78703       -0.74392
C         -1.40319        0.50842       -0.13828
C         -0.84283       -0.73532        0.19298
F         -2.73153        0.66298       -0.18086
C          0.55245       -0.93423        0.24744
F         -1.63705       -1.79442        0.47413
O          1.09515       -2.13481        0.56736
F          2.72284        0.01078       -0.00116
H          0.35721       -2.75686        0.73362
