17
PENTANOIC_ACID.gamout	Energy:    -346.7687222
O          2.33165        3.23216        1.49464
O          1.34924        3.78854       -0.46583
C          2.93256        0.68019        0.12347
C          2.77930       -0.83589       -0.07394
C          1.58457        1.43024        0.12140
C          4.11751       -1.58533       -0.06848
C          1.71925        2.92942        0.31276
H          3.45613        0.88484        1.08229
H          3.58331        1.09523       -0.67909
H          2.11857       -1.24157        0.72595
H          2.24470       -1.02947       -1.03142
H          0.94650        1.03978        0.94583
H          1.03769        1.27453       -0.82958
H          3.97508       -2.67638       -0.21146
H          4.78543       -1.22591       -0.88027
H          4.65752       -1.44077        0.89158
H          2.38058        4.21405        1.51742
