8
PENTACHLOROETHANE.gamout	Energy:   -2377.2269307
Cl        -1.71390        1.47395       -0.24660
C         -0.78643        0.00000       -0.65908
C          0.61733       -0.00000        0.02620
Cl         0.47236       -0.00000        1.80622
Cl         1.51526       -1.46195       -0.52461
Cl         1.51526        1.46195       -0.52461
Cl        -1.71390       -1.47395       -0.24659
H         -0.62334       -0.00000       -1.75351
