27
PENTAMETHYLBENZENE.gamout	Energy:    -428.5002785
C          1.40871        4.89518        2.87170
C          2.43608        3.88950        2.38596
C          3.73028        4.32161        1.98389
C          2.11680        2.50622        2.32962
C          4.09884        5.79191        2.01744
C          4.71048        3.38657        1.54830
C          0.75581        1.97513        2.73492
C          3.09730        1.60251        1.88169
C          6.08474        3.88195        1.14639
C          4.38750        2.00625        1.49245
C          5.38364        0.96332        1.02702
H          1.79658        5.51177        3.71044
H          0.48551        4.40442        3.23053
H          1.10701        5.60373        2.06872
H          4.82130        6.01420        2.83517
H          3.22331        6.44895        2.16969
H          4.58907        6.11324        1.07448
H          0.52231        2.18699        3.80115
H          0.70784        0.87608        2.60036
H         -0.06608        2.41799        2.13163
H          2.84429        0.52926        1.83685
H          6.53112        4.53939        1.92253
H          6.04727        4.48518        0.21124
H          6.79537        3.05335        0.96963
H          5.73948        1.15422       -0.00859
H          4.92918       -0.04757        1.03863
H          6.28633        0.92761        1.67508
