30
PENTYLCYCLOPENTANE.gamout	Energy:    -392.8185525
C          2.34668        1.77365       -1.50968
C          3.29741        0.89447       -2.35105
C          1.54509        0.77796       -0.64038
C          3.73481       -0.17040       -1.32343
C          2.45940       -0.47989       -0.49999
H          2.96235        2.44252       -0.86608
H          1.70079        2.42962       -2.12935
H          2.68880        0.38303       -3.13672
C          4.42752        1.67443       -3.04397
H          1.27808        1.21520        0.34309
H          0.58666        0.51069       -1.13382
H          4.16994       -1.07771       -1.78882
H          4.52236        0.26801       -0.66878
H          2.70387       -0.70189        0.55881
H          1.94562       -1.38221       -0.89410
H          5.04430        2.18019       -2.26305
H          3.96943        2.49807       -3.63841
C          5.34801        0.85192       -3.96676
H          4.72702        0.33195       -4.73326
H          5.84131        0.04162       -3.38240
C          6.42990        1.68991       -4.67309
H          7.05106        2.20817       -3.90528
H          5.94039        2.50497       -5.25601
C          7.35029        0.88467       -5.60513
H          6.73205        0.37189       -6.37746
H          7.83653        0.06772       -5.02408
C          8.42748        1.73268       -6.29420
H          9.09082        2.22986       -5.55391
H          7.97763        2.53131       -6.92278
H          9.07019        1.11408       -6.95315
