13
PENTACHLOROPHENOL.gamout	Energy:   -2604.7276643
C          6.33942        1.85916       -0.67021
C          6.88684        0.59653       -0.33303
C          4.93922        2.04217       -0.72140
Cl         7.43297        3.15928       -1.01508
C          4.06296        0.96474       -0.43578
Cl         4.29351        3.59533       -1.13657
C          4.59918       -0.30025       -0.09789
Cl         2.34455        1.19278       -0.49954
Cl         3.55396       -1.63643        0.25660
C          5.99826       -0.46913       -0.05040
Cl         6.71823       -2.00995        0.36132
O          8.22457        0.44761       -0.29114
H          8.40172       -0.48878       -0.04168
