19
PENTAMETHYLENE_DICYANIDE.gamout	Energy:    -381.9520866
N         -0.04272       36.84854        0.00029
C          1.07951       37.18657        0.00002
C          2.47747       37.62950       -0.00026
C          2.63715       39.16732       -0.00004
C          4.11033       39.59915       -0.00005
C          4.28732       41.12475        0.00012
C          5.77431       41.54661        0.00021
C          5.96317       43.00110        0.00041
N          6.09074       44.16619        0.00039
H          2.97922       37.18720        0.88903
H          2.97880       37.18750       -0.88994
H          2.11846       39.58691       -0.88890
H          2.11851       39.58665        0.88898
H          4.62258       39.16483        0.88896
H          4.62249       39.16505       -0.88921
H          3.78632       41.56569       -0.88861
H          3.78629       41.56548        0.88895
H          6.29646       41.12927        0.88963
H          6.29651       41.12957       -0.88933
