12
PENTAFLUOROBENZENE.gamout	Energy:    -727.8530186
F          7.15302        2.89362       -0.94510
C          6.33417        1.87150       -0.67394
C          6.86837        0.61239       -0.33756
C          4.93623        2.03302       -0.71907
F          8.19304        0.44554       -0.29076
C          6.01696       -0.47224       -0.04986
F          4.43873        3.23586       -1.04018
C          4.07585        0.96436       -0.43567
F          6.53608       -1.66300        0.26840
C          4.62291       -0.28186       -0.10279
F          3.82056       -1.31998        0.17251
H          2.98652        1.10176       -0.47387
