32
PERFLUORODECANE.gamout	Energy:   -2575.5750018
F          1.05995       20.84229        0.14094
C          1.18514       20.17351       -1.01559
F         -0.02935       20.06005       -1.58132
F          1.98286       20.86238       -1.84796
C          1.74580       18.73480       -0.75732
F          0.93979       18.15402        0.15883
F          1.65003       18.04659       -1.92640
C          3.23437       18.66355       -0.22918
F          3.58348       19.89984        0.22207
F          3.29632       17.80791        0.81259
C          4.33252       18.26431       -1.28499
F          4.23047       19.11269       -2.33133
F          5.52302       18.48146       -0.66304
C          4.31528       16.76792       -1.82237
F          3.36942       16.07229       -1.13619
F          3.98189       16.76956       -3.12949
C          5.64735       15.93891       -1.66546
F          5.98393       15.90600       -0.35980
F          5.34105       14.67338       -2.05834
C          6.88597       16.44401       -2.51799
F          6.58823       17.69235       -2.98192
F          7.97399       16.51891       -1.71535
C          7.27410       15.60400       -3.78815
F          6.15666       15.34437       -4.50037
F          8.07838       16.40171       -4.54110
C          8.04909       14.25075       -3.53713
F          7.82021       13.81560       -2.27339
F          7.57992       13.33017       -4.40995
C          9.60000       14.30514       -3.73501
F         10.14813       15.28604       -2.99971
F         10.11807       13.12906       -3.33739
F          9.90219       14.49259       -5.02816
