23
PERFLUOROHEPTANE.gamout	Energy:   -1862.7756231
C          1.10593       -0.17654        0.31900
C         -0.06696       -0.53098       -0.67085
C         -1.50580       -0.58193        0.00545
F         -0.08534        0.36930       -1.68866
F          0.18342       -1.75582       -1.18481
C          2.41772        0.27414       -0.41990
F          0.72372        0.83218        1.13942
F          1.37369       -1.27719        1.06559
C         -2.33779        0.74299       -0.13044
F         -1.36914       -0.90026        1.32121
F         -2.20456       -1.56952       -0.59892
C          3.70996        0.20535        0.46660
F          2.62606       -0.51949       -1.50230
F          2.26219        1.55441       -0.83074
C         -3.56531        0.83576        0.84244
F         -2.80622        0.81959       -1.39899
F         -1.54529        1.81670        0.11615
F          4.70749        0.83636       -0.17489
F          3.50361        0.81105        1.65023
F          4.07149       -1.06867        0.68031
F         -4.33230        1.87338        0.46942
F         -3.15605        1.03085        2.10468
F         -4.29909       -0.29018        0.78347
