28
PERFLUORODECALIN.gamout	Energy:   -2176.5039372
C         51.76716       28.53917        1.35676
C         53.23320       29.09168        1.28259
F         51.22603       28.92342        2.53598
F         51.04115       29.07273        0.34494
C         51.70897       26.98480        1.25396
C         52.50602       26.43279        0.02081
F         50.41869       26.59649        1.13556
F         52.22851       26.45503        2.38756
C         53.98019       26.97780       -0.03519
F         52.53295       25.08379        0.12187
F         51.83437       26.77647       -1.10465
F         53.16161       30.44060        1.20781
C         54.01978       28.54521        0.03521
F         53.86982       28.74789        2.42834
C         55.49396       29.09020       -0.02078
F         53.37963       29.04252       -1.08019
C         54.76677       26.43133       -1.28257
F         54.62036       26.48052        1.08021
C         56.23283       26.98382       -1.35674
F         54.83834       25.08241       -1.20780
F         54.13016       26.77515       -2.42832
C         56.29104       28.53818       -1.25392
F         56.77394       26.59959       -2.53598
F         56.95884       26.45023       -0.34495
F         57.58131       28.92647       -1.13546
F         55.77152       29.06797       -2.38751
F         55.46705       30.43920       -0.12183
F         56.16560       28.74652        1.10469
