18
PERFLUORONAPHTHALENE.gamout	Energy:   -1178.8464973
C          6.86208        1.19653        1.53389
C          5.71453        0.52354        1.94268
F          7.93203        1.26265        2.32988
C          6.91064        1.82481        0.26074
C          5.81024        1.77374       -0.58970
F          8.02481        2.46283       -0.10546
C          4.61464        1.09239       -0.20589
F          5.90206        2.38152       -1.77878
F          5.71746       -0.05181        3.15112
C          4.56496        0.44892        1.09715
C          3.36935       -0.23243        1.48096
C          3.46507        1.01777       -1.05141
F          3.46215        1.59309       -2.25987
C          2.31751        0.34478       -0.64263
C          2.26896       -0.28350        0.63052
F          1.24757        0.27864       -1.43863
F          1.15479       -0.92154        0.99671
F          3.27753       -0.84021        2.67004
