20
PERFLUORO-2,3-DIMETHYLBUTANE.gamout	Energy:   -1625.1785203
C         18.40366       56.49308        0.07710
F         17.39385       55.61786       -0.10088
F         17.89803       57.73626        0.06025
F         18.94921       56.29744        1.28616
C         19.47595       56.35248       -1.08221
C         18.75681       56.43359       -2.48635
F         17.92179       57.48822       -2.50582
F         18.04675       55.32665       -2.75416
F         19.66032       56.61726       -3.46376
F         20.23673       57.49609       -0.98933
C         20.50679       55.15129       -0.86043
F         21.20412       55.48890        0.27759
C         19.89721       53.72208       -0.57451
C         21.61153       55.04827       -1.99132
F         20.89365       52.83408       -0.40744
F         19.11442       53.29602       -1.57745
F         19.17825       53.74244        0.56013
F         22.06354       56.25693       -2.35499
F         22.65841       54.35004       -1.52451
F         21.12338       54.41350       -3.07624
