15
PERFLUOROTOLUENE.gamout	Energy:   -1064.6334371
C          6.32987        1.83025       -0.66192
F          7.13167        2.86378       -0.93755
C          6.88101        0.57377       -0.32356
C          4.94207        2.03747       -0.71957
C          4.07154        0.96790       -0.43669
F          4.44811        3.23555       -1.04026
C          4.59513       -0.29189       -0.09970
F          2.75278        1.15085       -0.48858
F          3.76938       -1.30664        0.16822
C          5.99022       -0.48482       -0.04540
F          6.41755       -1.70732        0.27885
C          8.39673        0.43755       -0.28836
F          8.79812       -0.79508        0.07593
F          8.93475        1.31937        0.58759
F          8.93023        0.69771       -1.50630
