17
PERFLUOROPENTANE.gamout	Energy:   -1387.5696344
C         43.69948       18.51667       -0.70874
C         43.48493       20.06089       -0.52881
C         44.75887       20.83713       -0.03960
F         43.09896       20.58214       -1.72123
F         42.49339       20.25262        0.37844
C         42.43067       17.73385       -1.20075
F         44.68131       18.30975       -1.62072
F         44.07477       17.97989        0.47823
C         44.54915       22.38245        0.14270
F         45.75627       20.66461       -0.94120
F         45.14910       20.33529        1.15772
F         42.75212       16.43386       -1.31288
F         41.42187       17.85655       -0.32343
F         42.03015       18.18687       -2.39957
F         44.20080       22.95772       -1.01950
F         43.59764       22.62831        1.05761
F         45.70595       22.92118        0.56319
