18
PERFLUOROCYCLOHEXANE.gamout	Energy:   -1425.6223830
C         -3.84753        1.02237        1.14461
F         -3.58274        0.42090        2.32679
F         -2.78016        1.78010        0.78402
C         -5.08500        1.96252        1.32013
C         -4.06419       -0.07699        0.05370
C         -5.60865        2.54177       -0.03584
F         -6.08683        1.25537        1.90254
F         -4.74180        2.99005        2.13003
F         -6.78196        3.17751        0.18426
C         -5.82530        1.44244       -1.12678
F         -4.69756        3.43399       -0.49994
F         -6.89270        0.68474       -0.76615
C         -4.58787        0.50222       -1.30228
F         -6.09008        2.04389       -2.30897
F         -4.93110       -0.52529       -2.11217
F         -3.58601        1.20936       -1.88468
F         -4.97527       -0.96921        0.51783
F         -2.89088       -0.71273       -0.16640
