20
PERFLUORO-3-METHYLPENTANE.gamout	Energy:   -1625.1731609
C          1.10033       -0.27545       -0.01018
C          0.63461        0.09303        1.45093
C          0.99446        1.51684        2.03216
C          0.50286        2.76406        1.19347
C         -1.02674        3.04370        1.01087
C          0.60554        1.57525        3.57086
F          0.30342        0.29387       -0.92813
F          1.00126       -1.61053       -0.14169
F          2.37221        0.08540       -0.23513
F         -0.70766       -0.10430        1.49258
F          1.23025       -0.81779        2.26664
F          2.36731        1.61985        1.99940
F          1.04245        3.87221        1.75856
F          1.03673        2.64563       -0.05336
F         -1.64525        3.13593        2.20258
F         -1.16456        4.21263        0.36446
F         -1.61293        2.08060        0.28358
F          1.46889        0.82678        4.27228
F          0.67611        2.83190        4.04275
F         -0.64038        1.11489        3.78282
