23
PERFLUOROHEPTANOIC_ACID.gamout	Energy:   -1714.4258247
F          1.58054        0.94889        0.82985
F          1.27504        0.76391       -1.35233
F          0.79019       -1.79422       -1.23534
F          0.42954       -1.76866        0.94599
F         -1.40778       -0.23610       -0.63577
F         -0.94884        0.57332        1.37490
F          2.93990       -1.33466        1.52020
F          3.46065       -0.76307       -0.55200
F         -1.07966        2.08978       -1.80374
F         -0.15524        3.00003       -0.00619
F          4.32908       -3.26243        0.32966
F          3.01846       -3.29681       -1.41525
F          2.24719       -3.89673        0.54534
O         -3.47866        1.73063       -0.40752
O         -2.65896        3.42524        0.82810
C          0.87746        0.31430       -0.13879
C          1.16640       -1.23225       -0.05915
C         -0.64106        0.66805        0.06060
C          2.67761       -1.56636        0.21255
C         -1.05544        2.09458       -0.43306
C          3.07339       -3.05186       -0.09756
C         -2.48492        2.49744        0.08319
H         -3.11459        1.02740       -0.98836
