29
PERFLUORONONANE.gamout	Energy:   -2337.9800459
C         -3.23288        2.90959        0.46641
C         -1.91394        2.51706       -0.29264
C         -0.90297        1.66869        0.56242
C          0.41776        1.28257       -0.20880
C          1.42976        0.43056        0.65499
C          2.75055        0.04600       -0.12163
C          3.76162       -0.81257        0.73241
C          5.07490       -1.19809       -0.04109
C          6.08863       -2.06580        0.78756
F         -2.95562        3.65167        1.55013
F         -3.91187        1.81444        0.84440
F         -1.31311        3.66903       -0.67908
F         -2.27415        1.81065       -1.39155
F         -0.57202        2.39116        1.66121
F         -1.53271        0.53178        0.95047
F          1.03648        2.42476       -0.59505
F          0.07720        0.56434       -1.30599
F          1.76941        1.14696        1.75356
F          0.80748       -0.71033        1.03934
F          2.41161       -0.66978       -1.22114
F          3.37469        1.18638       -0.50421
F          3.14332       -1.95871        1.11183
F          4.11376       -0.10974        1.83726
F          4.74976       -1.91281       -1.14594
F          5.72092       -0.06665       -0.41538
F          6.50128       -1.41263        1.88550
F          7.15525       -2.32150        0.01025
F          5.52925       -3.23085        1.15164
F         -4.00201        3.62913       -0.36825
