15
PERFLUOROCYCLOPENTANE.gamout	Energy:   -1188.0114748
C          3.31582       -1.28433        0.61241
F          2.08062       -1.74041        0.33339
F          4.09706       -1.37629       -0.49432
C          3.30694        0.20517        1.10435
C          3.99789       -2.06668        1.77671
F          3.36987        1.06819        0.07129
F          2.17508        0.43045        1.81079
C          4.56736        0.35071        2.05792
F          3.09875       -2.20595        2.78632
F          4.45335       -3.27552        1.40122
C          5.13928       -1.11091        2.25665
F          4.19266        0.86263        3.24903
F          5.49457        1.15094        1.49363
F          6.22088       -1.28414        1.45965
F          5.48381       -1.34037        3.53838
