21
PERFLUOROMETHYLCYCLOHEXANE.gamout	Energy:   -1663.2356479
C         -3.44530        0.34780        2.52599
F         -3.08022        1.32960        3.36790
F         -2.39232       -0.46966        2.35365
F         -4.44575       -0.35076        3.08473
C         -3.86487        0.96825        1.14308
F         -2.76848        1.66023        0.68276
C         -5.04173        1.99573        1.28509
C         -4.21039       -0.13168        0.07796
F         -6.10624        1.38025        1.86336
F         -4.65393        3.02981        2.06588
C         -5.51640        2.59386       -0.08525
F         -5.19761       -0.92710        0.56455
F         -3.11633       -0.88774       -0.16831
C         -4.68685        0.46048       -1.29442
F         -6.62415        3.33691        0.13885
F         -4.53883        3.39440       -0.57595
C         -5.84242        1.49877       -1.14852
F         -5.10377       -0.56113       -2.07645
F         -3.63235        1.07118       -1.88963
F         -6.96989        0.84489       -0.77101
F         -6.05684        2.09336       -2.34433
