20
PERFLUORO-2-METHYLPENTANE.gamout	Energy:   -1625.1790715
C         51.85250       65.24467       -0.42511
C         50.57560       64.35742       -0.14945
C         49.20857       65.12144       -0.29597
C         50.58093       63.07894       -1.08098
F         50.65715       63.90549        1.14260
C         51.93250       66.63457        0.30420
F         52.93302       64.53422       -0.00414
F         51.95101       65.45659       -1.76181
F         48.18159       64.25168       -0.27682
F         49.04332       65.96978        0.73264
F         49.16603       65.81128       -1.44813
F         49.76927       62.14993       -0.55206
F         51.80842       62.54150       -1.18102
F         50.14821       63.38704       -2.31726
C         53.35846       67.29944        0.26077
F         51.07102       67.49755       -0.28910
F         51.59822       66.48248        1.60836
F         54.21667       66.65128        1.06076
F         53.24442       68.56841        0.68938
F         53.84073       67.30753       -0.99415
