20
PERFLUOROHEXANE.gamout	Energy:   -1625.1724053
F          1.23658        0.62360        1.10588
F          1.23658        0.62360       -1.10589
F         -1.23658       -0.62360       -1.10589
F         -1.23658       -0.62359        1.10589
F          0.96765       -2.13117       -1.10556
F          0.96765       -2.13117        1.10556
F         -0.96765        2.13117        1.10556
F         -0.96765        2.13117       -1.10556
F          3.33511       -2.81349       -0.00000
F          3.46140       -0.92795        1.09447
F          3.46140       -0.92795       -1.09447
F         -3.33512        2.81349        0.00000
F         -3.46140        0.92795       -1.09447
F         -3.46140        0.92795        1.09447
C          0.78598       -0.02096        0.00000
C         -0.78598        0.02096       -0.00000
C          1.39036       -1.46964       -0.00000
C         -1.39036        1.46964        0.00000
C          2.95976       -1.52239       -0.00000
C         -2.95976        1.52239       -0.00000
