17
PFBS-1.gamout	Energy:   -1673.8239348
C         -3.77413        0.31591       -0.00691
C         -2.38527        1.02330       -0.16073
C         -1.13947        0.08279        0.01440
C          0.21771        0.82462        0.20192
F         -4.75237        1.18281       -0.36658
F         -3.86781       -0.76593       -0.80222
F         -4.00589       -0.05779        1.26368
F         -2.36368        2.02249        0.76656
F         -2.37258        1.58132       -1.40000
F         -1.09619       -0.70256       -1.09368
F         -1.39170       -0.70009        1.10201
F          0.22055        1.35915        1.45952
F          0.24639        1.86632       -0.68996
S          1.78322       -0.29739       -0.04550
O          1.86111       -0.40756       -1.53309
O          2.84039        0.53736        0.60253
O          1.39221       -1.54064        0.68823
