14
PHENYLACETYLENE.gamout	Energy:    -308.1654625
C         -0.23297        0.39430       -0.02195
C         -1.36345        1.25362        0.00506
C         -0.44248       -1.00908       -0.07712
C         -2.65989        0.72041       -0.02299
C         -1.74293       -1.53204       -0.10481
C         -2.85556       -0.67166       -0.07808
C          1.09473        0.93212        0.00527
C          2.23034        1.39528        0.02867
H         -1.20613        2.34200        0.04775
H          0.43029       -1.67915       -0.09814
H         -3.52751        1.39872       -0.00178
H         -1.89021       -2.62282       -0.14785
H         -3.87542       -1.08698       -0.10017
H          3.23060        1.80497        0.04935
