20
PHENYLETHYLAMINE.gamout	Energy:    -365.9499582
N          3.85612       -0.00966       -0.23790
C          1.55505       -0.00477        0.67216
C          0.07226       -0.01471        0.36179
C          2.43755        0.06760       -0.59204
C         -0.62281        1.18601        0.09075
C         -0.64430       -1.22925        0.28256
C         -1.98564        1.17383       -0.25124
C         -2.00828       -1.24700       -0.05573
C         -2.68395       -0.04434       -0.32694
H          1.79368        0.86685        1.32355
H          1.84571       -0.91363        1.23938
H          2.14008        0.97666       -1.17887
H          2.19668       -0.80190       -1.24333
H         -0.08541        2.14733        0.15660
H         -0.12121       -2.17651        0.49661
H         -2.50726        2.12244       -0.45766
H         -2.54774       -2.20667       -0.10574
H         -3.75332       -0.05627       -0.59169
H          4.14876        0.85986        0.23056
H          4.42931       -0.07092       -1.09006
