26
PHENYL_SALICYLATE.gamout	Energy:    -726.5594853
C          6.47281        1.64444       -0.66868
C          6.69236        0.23272       -0.66109
C          5.20517        2.13023       -0.26242
C          7.55451        2.58274       -1.08845
C          5.64633       -0.62745       -0.25177
O          7.89101       -0.26476       -1.04718
C          4.17797        1.27137        0.14389
C          4.40509       -0.11772        0.14673
O          7.07133        3.89062       -1.10503
O          8.69398        2.29782       -1.38983
C          9.41150        7.22277       -2.11466
C          8.15209        7.01377       -2.70424
C          9.90952        6.28870       -1.18869
C          7.39670        5.87690       -2.37337
C          7.90493        4.95261       -1.44362
C          9.16308        5.14883       -0.84482
H          5.04820        3.21743       -0.27314
H          5.82533       -1.71675       -0.25151
H          7.84886       -1.23912       -0.98331
H          3.20472        1.67932        0.45598
H          3.61015       -0.81257        0.46153
H         10.00434        8.11301       -2.37654
H          7.75177        7.73910       -3.43033
H         10.89489        6.44603       -0.72183
H          6.40985        5.69148       -2.82367
H          9.55199        4.41776       -0.12345
