16
PHENYLHYDRAZINE.gamout	Energy:    -342.6766996
N          6.83897        4.16677       -1.38202
N          7.22714        2.94068       -0.83895
C          6.34861        1.88551       -0.61177
C          6.85983        0.58960       -0.33035
C          4.94243        2.06931       -0.61891
C          5.99212       -0.47525       -0.06200
C          4.59531       -0.28864       -0.06747
C          4.08507        0.98954       -0.34875
H          6.33691        4.72098       -0.67344
H          6.19261        4.03144       -2.17817
H          8.19964        2.69517       -1.03617
H          7.95129        0.43012       -0.32495
H          4.52332        3.06454       -0.82998
H          6.41388       -1.47080        0.15198
H          3.91739       -1.13001        0.14227
H          2.99575        1.15776       -0.35832
