26
PHENACETIN.gamout	Energy:    -593.6764541
O          3.17703        0.57114        0.41271
O         -3.39639        0.92212        0.40211
N         -2.19899       -1.01634        0.01096
C         -0.85397       -0.59296        0.11779
C          1.89043        0.12327        0.30345
C         -0.47945        0.74522        0.40046
C          0.16260       -1.55395       -0.06701
C          0.87303        1.08718        0.48901
C          1.52176       -1.21011        0.02316
C          4.24881       -0.35577        0.23957
C          5.55630        0.40409        0.40634
C         -3.36670       -0.28005        0.14953
C         -4.63603       -1.11419       -0.04154
H         -1.26755        1.49451        0.54505
H         -0.10953       -2.60052       -0.28711
H          1.17348        2.12342        0.70717
H          2.27949       -1.99155       -0.12790
H          4.16618       -1.17767        0.99031
H          4.18855       -0.82388       -0.77228
H         -2.31651       -2.01008       -0.19852
H          5.63590        1.21382       -0.34693
H          5.61917        0.86130        1.41450
H          6.41929       -0.28013        0.27745
H         -4.67321       -1.56903       -1.05427
H         -5.51016       -0.45163        0.08775
H         -4.69309       -1.93759        0.70185
