16
PHENYL_ACETONITRILE.gamout	Energy:    -363.5307455
C          6.40213        1.84544       -0.67489
C          6.92180        0.59109       -0.31611
C          5.01118        2.04316       -0.74927
C          4.12627        0.98537       -0.46758
C          2.60695        1.15079       -0.53323
C          4.65414       -0.27286       -0.10561
C          6.04205       -0.46918       -0.03095
C          2.14221        2.47795       -0.94559
N          1.77187        3.54100       -1.27098
H          7.08178        2.68252       -0.90018
H          8.01095        0.43865       -0.25617
H          4.61113        3.02982       -1.03269
H          2.17479        0.40313       -1.23548
H          2.15824        0.92846        0.46129
H          3.97061       -1.10965        0.11584
H          6.43905       -1.45783        0.24932
