24
PHENANTHRENE.gamout	Energy:    -539.1457974
C          4.27161        4.21609        6.04857
C          3.40163        3.36036        5.37530
C          3.43715        3.22704        3.95893
C          5.22195        4.98122        5.32848
C          5.28310        4.87355        3.94197
C          4.40496        4.00595        3.23157
C          4.47293        3.89840        1.79600
C          2.53757        2.33923        3.22211
C          2.64352        2.26565        1.78874
C          1.55163        1.53650        3.86076
C          3.62886        3.06379        1.10463
C          1.77136        1.40351        1.06433
C          0.81715        0.63043        1.71972
C          0.70873        0.69999        3.13048
H          4.21956        4.29770        7.14587
H          2.67333        2.77785        5.95857
H          5.90678        5.65592        5.86592
H          6.01765        5.46264        3.36884
H          5.22244        4.50443        1.26145
H          1.44692        1.57207        4.95519
H          3.68961        2.98953        0.00662
H          1.86615        1.35910       -0.03305
H          0.14902       -0.03199        1.14704
H         -0.04481        0.09073        3.65418
