18
PHENYL_ACETATE.gamout	Energy:    -459.7918481
C          2.28357        0.75771        0.52302
O          2.46476        2.01015        1.06323
C          3.68415        2.67573        1.19187
C          0.80876        0.41658        0.54968
O          3.16494        0.04386        0.09185
C          3.57176        3.95411        1.77631
C          4.94067        2.17406        0.79652
C          4.71790        4.73893        1.96401
C          6.07852        2.97835        0.99312
C          5.97939        4.25486        1.57047
H          0.42338        0.45276        1.58895
H          0.23375        1.16319       -0.03527
H          0.65973       -0.59167        0.12472
H          2.57320        4.30768        2.07486
H          5.01791        1.17755        0.34848
H          4.62470        5.73656        2.42186
H          7.06164        2.58974        0.68237
H          6.88038        4.87154        1.71321
