29
PHENOBARBITAL.gamout	Energy:    -799.1716825
O          0.63217       -0.80316        2.37743
O          0.61611       -0.66939       -2.42097
O          3.31242        2.07990        0.04754
N          1.87980        0.68404        1.18721
N          1.86937        0.75194       -1.15812
C          0.21135       -0.74193       -0.02037
C          0.16724       -2.29296       -0.06351
C         -1.19526       -0.08534        0.00241
C          0.91102       -0.31777        1.29347
C          0.90159       -0.24420       -1.31370
C          1.54851       -2.95888       -0.08508
C         -1.30605        1.32347        0.04828
C         -2.37920       -0.84945       -0.02797
C          2.42577        1.24324        0.02725
C         -2.56166        1.95051        0.06143
C         -3.63730       -0.22118       -0.01436
C         -3.73568        1.17847        0.02950
H         -0.40251       -2.57936       -0.97008
H         -0.40065       -2.62952        0.82702
H          2.13554       -2.66203       -0.97899
H          2.14040       -2.71274        0.82092
H          1.44260       -4.06223       -0.11599
H          2.31220        0.99510        2.06483
H          2.29429        1.11281       -2.02020
H         -0.40051        1.94998        0.07403
H         -2.33646       -1.94652       -0.06362
H         -2.61977        3.04982        0.09670
H         -4.54901       -0.83903       -0.03901
H         -4.72295        1.66639        0.03916
