7
PHOSPHOROUS_ACID.gamout	Energy:    -568.6387830
O          0.28964        2.19168        0.30731
P          1.69305        1.29958        0.18998
O          1.10577       -0.16142       -0.44587
O          2.33049        1.78009       -1.27124
H         -0.23543        2.16987       -0.52294
H          0.83893       -0.76798        0.27257
H          2.00378        1.19415       -1.98863
