19
PICRIC_ACID.gamout	Energy:    -920.3660470
C          6.34499        1.86947       -0.64208
C          6.88650        0.60964       -0.35405
C          4.92674        2.11254       -0.70601
N          7.28188        2.97188       -0.88246
C          6.01382       -0.44817       -0.10363
C          4.09185        0.97719       -0.44644
O          4.42097        3.30190       -0.95161
C          4.62042       -0.27330       -0.13464
N          6.56964       -1.79028        0.20928
N          2.60831        1.09170       -0.50728
O          6.78795        4.10952       -1.11119
O          8.48323        2.75559       -0.85288
O          5.75970       -2.69438        0.41723
O          7.79636       -1.89651        0.23641
O          2.13842        1.91919       -1.28324
O          1.97075        0.31942        0.21053
H          7.97505        0.46587       -0.32128
H          5.23450        3.91099       -1.06673
H          3.94811       -1.11419        0.08661
