19
PINACOLONE.gamout	Energy:    -310.8551168
O         -1.08651        0.89400       -3.02062
C         -1.04354        2.97001       -1.79258
C         -2.31978        3.48640       -2.50085
C         -1.00545        3.48599       -0.34120
C          0.21078        3.45877       -2.55716
C         -1.06483        1.41385       -1.91356
C         -1.05715        0.56185       -0.65297
H         -2.31867        4.59620       -2.54242
H         -3.23848        3.16851       -1.96314
H         -2.37230        3.09098       -3.53459
H         -0.09804        3.15068        0.20319
H         -1.89377        3.16792        0.24335
H         -0.99430        4.59652       -0.33801
H          0.23392        4.56842       -2.59552
H          0.20782        3.06631       -3.59337
H          1.14535        3.11720       -2.06311
H         -1.93475        0.79050       -0.01194
H         -1.07266       -0.50684       -0.93720
H         -0.15790        0.77159       -0.03613
