17
PIPERIDINE.gamout	Energy:    -251.7137303
C          3.14702        3.35918        1.81907
C          3.92262        2.15512        1.25302
C          1.70288        3.38561        1.28229
C          3.14014        0.84450        1.48541
C          1.01061        2.02561        1.51467
N          1.75680        0.87329        0.99765
H          3.11976        3.28281        2.93146
H          3.67069        4.31137        1.58532
H          4.07724        2.29389        0.15715
H          4.93583        2.08648        1.70837
H          1.11940        4.20444        1.75952
H          1.71562        3.60432        0.18844
H          3.66396       -0.01669        1.01659
H          3.10829        0.63172        2.58067
H          0.87295        1.87422        2.61186
H         -0.00834        2.01752        1.06994
H          1.76670        0.91840       -0.03109
