53
PROGESTERONE.gamout	Energy:    -968.0393089
O          5.69197       -1.16517       -1.40874
O         -5.75913        0.88084        1.42469
C          1.85850        0.77772       -0.13449
C          2.46253       -0.58931       -0.57006
C          0.40139        1.01012       -0.59303
C         -0.49553       -0.14415       -0.05722
C         -2.02384       -0.00135       -0.43326
C          3.90589       -0.45033        0.05129
C          1.57301       -1.69553        0.01880
C          0.09782       -1.53133       -0.40298
C          2.95349        1.80271       -0.48636
C         -0.14711        2.36323       -0.11326
C          4.28306        1.03766       -0.21345
C         -2.50151        1.40791       -0.07814
C          2.56204       -0.73711       -2.10029
C         -1.62137        2.55503       -0.50736
C         -2.85040       -1.04324        0.36603
C         -2.25634       -0.21317       -1.95137
C          4.94954       -1.44384       -0.47637
C         -4.36201       -0.78796        0.36848
C         -3.69104        1.64550        0.54488
C         -4.70049        0.61301        0.85800
C          5.04013       -2.79162        0.22485
H          1.82072        0.73403        0.98172
H          0.37588        1.00247       -1.70827
H         -0.46383       -0.04794        1.05501
H          3.79150       -0.63006        1.14349
H          1.64517       -1.66277        1.12943
H          1.92015       -2.70316       -0.29280
H          0.00931       -1.71513       -1.49523
H         -0.49798       -2.32933        0.08438
H          2.87183        2.72604        0.12093
H          2.88181        2.11337       -1.55150
H          0.45498        3.20045       -0.52186
H         -0.05524        2.41797        0.99607
H          4.97416        1.08709       -1.07884
H          4.83015        1.45602        0.65519
H          3.28034       -0.02375       -2.54642
H          2.90875       -1.75500       -2.37173
H          1.58495       -0.58276       -2.59580
H         -1.68080        2.63965       -1.61877
H         -2.01369        3.50931       -0.10531
H         -2.49236       -1.03948        1.41967
H         -2.65074       -2.05833       -0.02924
H         -1.63760        0.46683       -2.56896
H         -2.01677       -1.25303       -2.24582
H         -3.31485       -0.02109       -2.21377
H         -4.90106       -1.52030        0.99975
H         -4.78964       -0.88895       -0.65615
H         -3.98917        2.67632        0.79460
H          5.40349       -2.64124        1.26464
H          4.04480       -3.27588        0.31124
H          5.74203       -3.45197       -0.31658
