17
PROLINE.gamout	Energy:    -400.8637986
C          1.64913        1.49062       -0.11177
C          2.21750        1.48093        1.31322
O          3.53328        1.81750        1.33426
O          1.60208        1.16813        2.31754
C          0.13553        1.88261       -0.13642
N          1.76141        0.09735       -0.62276
C          0.40503       -0.47181       -0.54716
C         -0.55394        0.69792       -0.85028
H          2.28607        2.16101       -0.72307
H          3.81587        1.71248        2.27098
H         -0.03253        2.85227       -0.64622
H         -0.23243        1.97391        0.90551
H          2.06297        0.13525       -1.60380
H          0.22509       -0.85285        0.48272
H          0.31037       -1.33425       -1.23855
H         -0.60766        0.87098       -1.94822
H         -1.58998        0.52564       -0.49169
