27
PROPYL_GALLATE.gamout	Energy:    -763.8737210
C          4.94401        0.33015        1.64720
C          6.23254        0.88735        1.44870
O          3.99308        0.63610        0.71770
C          4.70713       -0.49177        2.76282
C          5.73803       -0.76347        3.68929
C          7.02279       -0.20920        3.49797
C          5.53420       -1.62173        4.88955
C          7.25780        0.60459        2.38568
O          8.46201        1.20088        2.08566
O          6.47719        1.68099        0.37627
O          6.39312       -1.86463        5.72661
O          4.26638       -2.12044        4.96586
C          3.98280       -2.93692        6.12044
C          2.55009       -3.44422        6.00908
C          2.15093       -4.32788        7.19747
H          3.16335        0.19245        0.97673
H          3.70851       -0.92730        2.92053
H          7.81282       -0.43104        4.23263
H          9.11877        0.96695        2.76728
H          7.41942        1.94754        0.44410
H          4.71453       -3.77357        6.16826
H          4.13577       -2.33072        7.04125
H          1.86331       -2.57303        5.93193
H          2.44408       -4.00946        5.05715
H          2.21735       -3.77463        8.15861
H          2.80561       -5.22124        7.28312
H          1.10749       -4.68918        7.09516
