40
PROPRANOLOL.gamout	Energy:    -826.9315744
O          0.15931        0.79689        0.29682
O          2.22813        1.56250        2.03444
N          3.52788       -0.46889       -0.73289
C          2.47448        1.29859        0.66045
C          2.97323       -0.15404        0.57990
C          3.75595       -1.90154       -0.99427
C          1.25203        1.53611       -0.23192
C          4.79430       -2.04994       -2.11197
C          2.44321       -2.60168       -1.37304
C         -1.03879        0.79092       -0.35051
C         -2.09071        0.09780        0.34801
C         -3.38871        0.00139       -0.26485
C         -1.28725        1.38808       -1.58707
C         -1.87543       -0.48391        1.62967
C         -3.60735        0.60688       -1.53945
C         -2.58001        1.28646       -2.17328
C         -4.41745       -0.69407        0.43495
C         -2.90260       -1.15049        2.28496
C         -4.18299       -1.25990        1.68051
H          3.28156        1.96727        0.25568
H          2.10547       -0.81612        0.78159
H          3.68768       -0.30219        1.42839
H          4.16572       -2.41079       -0.07956
H          4.41940        0.03105       -0.84792
H          1.51321        1.19736       -1.26147
H          0.99402        2.62203       -0.27442
H          4.98295       -3.11828       -2.33850
H          4.44190       -1.55487       -3.04190
H          5.76589       -1.59339       -1.82533
H          1.67884       -2.50587       -0.57592
H          2.60992       -3.68522       -1.54347
H          2.02433       -2.15367       -2.29830
H          1.80672        2.43955        2.10873
H         -0.49560        1.92804       -2.12273
H         -0.88161       -0.37887        2.08621
H         -4.60072        0.52881       -2.00587
H         -2.75502        1.75762       -3.15283
H         -5.41131       -0.77417       -0.03194
H         -2.72701       -1.59503        3.27659
H         -4.99295       -1.78947        2.20399
