23
PROPYL_PHENYL_KETONE.gamout	Energy:    -463.1787442
C          0.70570       -0.15518        0.00105
C          1.71333       -1.14739        0.00115
C          3.06783       -0.78857        0.00037
C          3.43596        0.57082       -0.00062
C          2.44323        1.56687       -0.00058
C          1.08544        1.20703        0.00018
C         -0.73343       -0.61130       -0.00007
O         -1.00948       -1.80852       -0.00163
C         -1.83640        0.44771        0.00070
C         -3.25398       -0.13350       -0.00028
C         -4.34276        0.94626        0.00022
H          1.39340       -2.20098        0.00189
H          3.84505       -1.56955        0.00051
H          4.50079        0.85377       -0.00142
H          2.72790        2.63100       -0.00109
H          0.32081        1.99855        0.00033
H         -1.68126        1.11138        0.88334
H         -1.68080        1.11309       -0.88055
H         -3.36707       -0.79943       -0.88235
H         -3.36772       -0.80090        0.88059
H         -4.26714        1.60034        0.89548
H         -4.26646        1.60176       -0.89394
H         -5.35783        0.49842       -0.00052
