25
PROPYLPARABEN.gamout	Energy:    -613.5365162
C         -1.09323       -0.46235        0.06100
C         -0.05486       -1.29670       -0.40878
C         -2.43343       -0.82818       -0.11603
C         -0.39032       -2.50724       -1.05977
C          1.38982       -0.96270       -0.24878
C         -2.75790       -2.04027       -0.76749
C         -1.72367       -2.88082       -1.23982
O         -4.04106       -2.44648       -0.96609
O          2.31393       -1.65903       -0.64428
O          1.57904        0.22118        0.40033
C          2.95301        0.61482        0.60229
C          2.96398        1.94840        1.34014
C          4.38771        2.45441        1.60530
H         -0.83975        0.47914        0.56916
H         -3.24109       -0.17232        0.25253
H          0.43108       -3.14632       -1.41852
H         -1.99517       -3.82060       -1.74401
H         -4.64528       -1.77606       -0.59266
H          3.47854       -0.18129        1.17530
H          3.46269        0.68171       -0.38442
H          2.39601        2.69242        0.73967
H          2.41137        1.83074        2.29781
H          4.94977        2.60395        0.65907
H          4.96666        1.73789        2.22606
H          4.37421        3.42447        2.14208
