8
PROPARGYL_ALCOHOL.gamout	Energy:    -191.7101118
C          3.25428        1.77431        0.92938
C          1.96782        1.07213        0.89932
C          0.88364        0.50862        0.87293
O          4.32550        0.84496        1.04211
H          3.23272        2.49755        1.78532
H          3.33058        2.39374       -0.00151
H         -0.07218        0.00365        0.84981
H          5.14864        1.36861        1.05055
