27
PROPMPYR+1.gamout	Energy:    -369.9272678
N          0.67154       -0.06018       -0.12634
C         -0.28976        0.33118       -1.27756
C          1.49597        1.22434        0.15876
C          1.16039        2.19797       -0.97266
H          2.56401        0.95074        0.24214
H          1.15941        1.61109        1.13956
C         -0.30269        1.85738       -1.29586
H         -1.26698       -0.15912       -1.10739
H          0.14889       -0.07084       -2.21120
H         -0.98943        2.26698       -0.52512
H         -0.64236        2.24463       -2.27638
H          1.81014        2.02277       -1.85607
H          1.31259        3.24840       -0.65574
C         -0.12945       -0.44802        1.09004
H         -0.86415        0.35054        1.30025
H          0.54590       -0.56545        1.95642
H         -0.65380       -1.40145        0.89038
C          1.56444       -1.21700       -0.58474
C          2.49407       -1.81539        0.47226
H          2.14846       -0.81924       -1.44104
H          0.87478       -1.99127       -0.98212
C          3.38946       -2.90109       -0.14734
H          2.79160       -3.73387       -0.57189
H          4.05720       -3.33090        0.62423
H          4.03235       -2.49504       -0.95570
H          1.90499       -2.26047        1.30160
H          3.13232       -1.02411        0.92241
