11
PROPYLENEIMINE.gamout	Energy:    -173.1111187
C         -1.64835        0.78850       -1.95938
N         -0.73944        0.73904       -0.79505
C         -2.04832        1.41357       -0.66178
C         -2.02443        2.90916       -0.43354
H         -1.30382        1.42586       -2.79408
H         -2.16964       -0.13163       -2.28191
H         -0.78445       -0.19643       -0.36519
H         -2.83534        0.87496       -0.09688
H         -1.84729        3.14673        0.63708
H         -2.98782        3.37575       -0.73065
H         -1.21022        3.37963       -1.02118
