22
PROPYL_ISOPROPYL_KETONE.gamout	Energy:    -350.1391863
C          1.79267        1.51978       -0.05046
C          3.03273        0.71326        0.33693
C          3.05108       -0.79519        0.01243
O          4.00271        1.24459        0.86146
C          1.97219        3.03646        0.06649
C          1.73033       -1.52497        0.30860
C          3.49723       -0.98896       -1.45487
C          0.70680        3.82580       -0.28648
H          1.48212        1.22480       -1.07996
H          0.95528        1.17245        0.60025
H          3.85238       -1.20338        0.66566
H          2.30271        3.27587        1.09953
H          2.81439        3.34933       -0.58850
H          1.84638       -2.61546        0.13528
H          1.40803       -1.38947        1.36220
H          0.90565       -1.17677       -0.34870
H          3.62059       -2.06844       -1.68380
H          4.46673       -0.48685       -1.64909
H          2.74889       -0.58247       -2.16880
H          0.87254        4.91910       -0.19300
H          0.37592        3.62988       -1.32941
H         -0.14139        3.56157        0.38160
