11
PROPANE.gamout	Energy:    -119.0458381
C          3.37543        1.64756        1.32245
C          2.00487        1.07637        0.93419
C          0.94343        1.24280        2.03028
H          3.77608        1.15157        2.23283
H          3.31417        2.73584        1.53982
H          4.12259        1.51147        0.51273
H          1.65071        1.56559       -0.00106
H          2.11305       -0.00325        0.68508
H         -0.03705        0.82421        1.72117
H          0.78457        2.31398        2.28086
H          1.24566        0.72685        2.96729
