13
PROPYLENE_CARBONATE.gamout	Energy:    -381.4440498
C          2.89020        3.26665        1.55882
C          3.01503        1.78138        1.10857
O          1.79442        1.18776        1.59969
C          4.22586        1.04853        1.67001
O          1.65453        3.32504        2.27542
C          1.03756        2.10094        2.28202
O         -0.01397        1.86804        2.81005
H          3.71708        3.57043        2.23628
H          2.85167        3.97533        0.70537
H          2.99462        1.69676        0.00027
H          4.25283        1.12387        2.77686
H          4.20010       -0.02386        1.39228
H          5.16128        1.48863        1.26536
