16
PROTOCATECHUALDEHYDE.gamout	Energy:    -495.6596829
O          2.60030       -1.62258        0.00043
O          3.22140        0.96107        0.00062
O         -3.19436        0.21142       -0.00202
C         -0.81619       -0.13150       -0.00109
C          1.56332       -0.73850       -0.00001
C          0.21147       -1.10522       -0.00060
C          1.90012        0.64932        0.00009
C         -0.47451        1.23750       -0.00100
C          0.87264        1.61592       -0.00041
C         -2.23647       -0.54923       -0.00162
H         -0.05614       -2.17763       -0.00070
H         -1.28280        1.98427       -0.00133
H          1.15126        2.68409       -0.00030
H         -2.38845       -1.67449       -0.00166
H          2.23450       -2.52749        0.00037
H          3.31001        1.93373        0.00065
