10
PYRIDAZINE.gamout	Energy:    -264.0959092
N         -2.26396       -0.98124       -0.33032
N         -2.00815        0.32841       -0.43201
C          0.05741       -1.42100        0.23110
C          0.32450       -0.05439        0.12508
C         -1.26858       -1.82821       -0.01037
C         -0.75912        0.77893       -0.21282
H          0.83945       -2.15210        0.49056
H          1.33052        0.36059        0.29584
H         -1.56203       -2.89072        0.05353
H         -0.63239        1.87089       -0.31638
