10
PYRIMIDINE.gamout	Energy:    -264.1308192
N          0.99435       -1.63881        0.08311
N         -1.37744       -1.20830        0.09276
C          0.17788        0.61616       -0.14208
C          1.22150       -0.32135       -0.06515
C         -1.12806        0.10508       -0.05566
C         -0.29730       -2.00760        0.15378
H          0.37292        1.69306       -0.26333
H          2.27826        0.00003       -0.12494
H         -2.00478        0.77760       -0.10781
H         -0.49309       -3.08995        0.27598
