15
PYROGALLOL.gamout	Energy:    -457.5887749
O         -0.04001       -2.11949        0.00019
O         -2.39635       -0.77560        0.00031
O          2.34485       -0.80785        0.00010
C         -0.05235       -0.74539        0.00021
C         -1.25221       -0.00716        0.00030
C          1.19309       -0.07934        0.00019
C         -1.21914        1.39917        0.00038
C          1.22879        1.32895        0.00021
C          0.02640        2.05571        0.00031
H         -2.16178        1.97116        0.00040
H          2.20741        1.83086        0.00020
H          0.05684        3.15620        0.00039
H         -0.97337       -2.41549        0.00030
H         -3.17618       -0.19056        0.00041
H          2.08053       -1.75172        0.00013
