10
PYRROLE.gamout	Energy:    -210.0215449
C          2.89942        0.89755        0.12700
C          1.46869        0.87015        0.16410
C          3.29411        2.22343        0.28691
C          1.03284        2.18009        0.34517
N          2.15099        2.98588        0.41710
H          3.57122        0.04032       -0.00243
H          0.82426       -0.01219        0.06874
H          4.28930        2.68177        0.31778
H          0.02371        2.59990        0.42788
H          2.13475        3.99685        0.54728
