14
PYRROLIDINE.gamout	Energy:    -212.4215810
C          2.70758        0.78822        1.05456
C          1.22431        0.79053        1.53498
C          3.22121        2.22231        1.40419
C          1.03711        2.20316        2.16751
N          2.04073        3.08544        1.55533
H          3.31247       -0.00015        1.54912
H          2.76968        0.59980       -0.03784
H          0.53166        0.65420        0.67730
H          1.00645       -0.02567        2.25483
H          3.76719        2.19807        2.37501
H          3.92003        2.64013        0.65075
H          0.01665        2.61908        2.03893
H          1.23300        2.15512        3.26350
H          1.70909        3.34957        0.61631
