32
QUERCETIN.gamout	Energy:   -1103.4300338
C          1.17313       -1.59483        0.00511
O          1.18244       -2.86822        0.03543
C         -0.01164       -0.78672        0.01889
C          2.45169       -0.89899       -0.04683
C          0.11077        0.62175       -0.01884
C         -1.31801       -1.38141        0.07040
O          3.52335       -1.72347       -0.05640
C          2.51297        0.48856       -0.08142
O          1.33721        1.20965       -0.06659
C         -1.01647        1.45379       -0.00770
O         -1.43520       -2.71436        0.10615
C         -2.44699       -0.55458        0.08232
C          3.69551        1.34491       -0.13332
C         -2.29077        0.84857        0.04324
C          3.53891        2.75748       -0.16113
C          5.00935        0.81354       -0.15712
O         -3.43152        1.58740        0.05740
C          4.65251        3.59367       -0.21044
C          6.12335        1.65855       -0.20677
O          4.60772        4.96877       -0.24029
C          5.96613        3.05215       -0.23411
O          7.04084        3.87790       -0.28250
H          3.08702       -2.62268       -0.02282
H         -0.89264        2.54559       -0.03787
H         -0.48755       -3.07622        0.08793
H         -3.45220       -0.99261        0.12154
H          2.52999        3.19406       -0.14350
H          5.15440       -0.27264       -0.13638
H         -3.19263        2.53336        0.02731
H          7.14176        1.24518       -0.22528
H          3.68025        5.26845       -0.22170
H          6.68871        4.79378       -0.29366
