17
QUINOLINE.gamout	Energy:    -401.6384155
N         -1.19385       -1.41118       -0.00004
C         -2.33569       -0.73747        0.00028
C         -2.42802        0.68626        0.00015
C         -1.25669        1.42879       -0.00010
C         -0.00074        0.75284       -0.00016
C          1.25675        1.42809       -0.00008
C          2.44381        0.70676        0.00022
C          2.42053       -0.71794        0.00015
C          1.21321       -1.40410       -0.00003
C         -0.02633       -0.69427       -0.00025
H         -3.26356       -1.34113        0.00051
H         -3.41534        1.17369       -0.00002
H         -1.27963        2.53144       -0.00047
H          1.26989        2.53071       -0.00044
H          3.41030        1.23511        0.00042
H          3.37033       -1.27615       -0.00010
H          1.16843       -2.50387       -0.00039
