26
R-NICOTINE.gamout	Energy:    -498.6153626
N          1.72575       -0.56493        0.52506
N         -2.89218       -0.32355       -0.95462
C          0.90141       -0.14543       -0.61409
C          1.54161        1.21089       -1.07003
C          2.83241        1.35188       -0.22677
C          3.07464       -0.07245        0.27939
C         -0.57157       -0.04584       -0.26218
C          1.63822       -1.97430        0.84505
C         -0.99959        0.46250        0.97819
C         -1.57157       -0.42903       -1.17923
C         -2.37176        0.57591        1.23155
C         -3.27636        0.17484        0.23251
H          0.99369       -0.87951       -1.46083
H          0.84954        2.06021       -0.90721
H          1.75872        1.17569       -2.15658
H          3.68800        1.75210       -0.80526
H          2.66000        2.02998        0.63432
H          3.60896       -0.68147       -0.50411
H          3.69114       -0.11474        1.20266
H          2.24737       -2.19829        1.74424
H          1.99696       -2.63741        0.01019
H          0.58867       -2.25230        1.07032
H         -0.24605        0.74193        1.73090
H         -1.27353       -0.85377       -2.15671
H         -2.74099        0.96639        2.19194
H         -4.36523        0.25347        0.40420
