21
RDX.gamout	Energy:    -896.8446414
O          2.80688        0.42512       -1.01741
O         -1.77768        2.21416       -1.02032
O         -2.60975       -1.10154       -1.02412
O          2.26931       -1.70446       -1.01518
O          0.33428        2.81826       -1.02302
O         -1.03237       -2.63010       -1.02841
N          1.34934       -0.33857        0.53577
N         -0.38535        1.34564        0.53716
N         -0.97799       -0.99997        0.54184
N          2.19415       -0.55246       -0.60730
N         -0.62427        2.17726       -0.61090
N         -1.57686       -1.61499       -0.61406
C          0.99479        1.03063        0.88650
C          0.38745       -1.37548        0.88847
C         -1.39244        0.35341        0.89203
H          1.66915        1.72662        0.35486
H          1.11464        1.15430        1.98492
H          0.43634       -1.54040        1.98701
H          0.65040       -2.30866        0.35791
H         -1.55234        0.39527        1.99152
H         -2.33539        0.58738        0.36557
