55
RICINOLEIC_ACID.gamout	Energy:    -931.3710498
C         -5.57917        4.14316       -0.37210
C          8.76512       -2.80956       -0.19165
C         -6.86756        4.79418        0.16173
C          7.55961       -1.99842        0.28899
C          6.21260       -2.61964       -0.09742
C          4.99889       -1.81644        0.39729
C          3.64506       -2.43062       -0.00016
C          2.42399       -1.64985        0.51697
C          1.07049       -2.26461        0.12007
C         -0.15006       -1.50458        0.68299
C         -1.46508       -2.14597        0.32115
C         -4.12802        2.00103       -0.49560
C         -4.03446        0.49114       -0.19600
C         -5.41973        2.66293        0.01715
C         -2.69502       -0.12562       -0.67163
C         -7.02223        6.28251       -0.19317
C         -2.53485       -1.56936       -0.27002
C         -8.30789        6.91829        0.35126
O         -5.15290       -0.22351       -0.73051
O          8.69907       -3.86051       -0.78785
O          9.98571       -2.26686        0.10308
H         -5.55391        4.23741       -1.48322
H         -4.69828        4.72189       -0.00658
H         -7.74947        4.23091       -0.22378
H         -6.90461        4.67650        1.27017
H          7.64817       -0.96395       -0.11835
H          7.63782       -1.88871        1.39652
H          6.17582       -3.65772        0.29849
H          6.17473       -2.72825       -1.20339
H          5.05711       -0.77509        0.00195
H          5.04666       -1.71607        1.50716
H          3.59485       -3.48053        0.37056
H          3.59117       -2.50409       -1.11106
H          2.47080       -0.60166        0.13920
H          2.47962       -1.56786        1.62772
H          1.02990       -3.32528        0.46087
H          0.99321       -2.30524       -0.99025
H         -0.11941       -0.44879        0.33633
H         -0.05576       -1.46219        1.79492
H         -1.54414       -3.22239        0.56450
H         -4.03957        2.15039       -1.59977
H         -3.23962        2.50878       -0.05559
H         -4.11355        0.34030        0.90500
H         -5.45746        2.56575        1.12700
H         -6.28727        2.07671       -0.35905
H         -1.85172        0.49279       -0.29799
H         -2.66677       -0.03662       -1.78692
H         -6.13924        6.84347        0.19090
H         -6.99055        6.40319       -1.30063
H         -3.41808       -2.19874       -0.47574
H         -8.36261        6.84284        1.45880
H         -9.21344        6.41985       -0.05702
H         -8.37240        7.99383        0.08802
H         -5.12704       -0.10206       -1.70093
H          9.85780       -1.42570        0.58489
