16
SEC-BUTYLAMINE.gamout	Energy:    -213.6371765
C          2.04048        1.01634        1.86867
C          3.28548        1.92085        1.74932
C          4.51360        1.27466        2.41925
N          2.96425        3.26531        2.25777
C          0.81715        1.53145        1.10373
H          1.79372        0.90887        2.95215
H          2.31113       -0.00591        1.52226
H          3.50738        2.04181        0.66223
H          5.40846        1.92731        2.33118
H          4.32593        1.10615        3.50312
H          4.76962        0.29137        1.96770
H          2.82997        3.21257        3.27987
H          3.77091        3.89069        2.12154
H          0.57370        2.56585        1.41868
H          1.00866        1.55529        0.00927
H         -0.07150        0.88874        1.27381
