24
SEC-BUTYLBENZENE.gamout	Energy:    -389.2086210
C          2.10397        1.30613        0.86827
C          2.46257        2.12481        2.13735
C          2.68695        1.23427        3.37788
C          3.65616        3.04227        1.88058
C          0.77989        0.53542        0.95118
C          4.93191        2.51867        1.56787
C          3.51395        4.44547        1.93941
C          6.02323        3.36738        1.31947
C          4.60344        5.30024        1.69475
C          5.86381        4.76352        1.38265
H          2.93537        0.60043        0.64225
H          2.06477        2.00825        0.00660
H          1.59172        2.78646        2.35182
H          3.53032        0.52814        3.22173
H          1.78547        0.63123        3.61272
H          2.92359        1.84746        4.27154
H          0.79385       -0.25113        1.73421
H          0.55218        0.03278       -0.01187
H         -0.06994        1.21533        1.17752
H          5.07693        1.42703        1.51361
H          2.52699        4.87451        2.18221
H          7.00772        2.93588        1.07627
H          4.46584        6.39229        1.74862
H          6.72035        5.42945        1.19128
