27
SEC-BUTYL_TERT-BUTYL_ETHER.gamout	Energy:    -390.6142162
O         -0.02200       -0.15527       -0.42205
C          1.35799       -0.20720        0.02104
C         -1.00490        0.67789        0.19669
C         -2.36586        0.14208       -0.28473
C          1.52764        0.06310        1.52738
C          1.78587       -1.65190       -0.30055
C          2.20513        0.77983       -0.81183
C         -0.84226        2.17053       -0.13186
C         -2.62984       -1.31932        0.09090
H         -0.96353        0.55273        1.30752
H         -3.16134        0.79698        0.13467
H         -2.40719        0.26164       -1.39075
H          0.91420       -0.63361        2.13561
H          2.58953       -0.08879        1.80996
H          1.25792        1.10241        1.80519
H          1.59609       -1.87066       -1.37093
H          1.19886       -2.37193        0.30514
H          2.86436       -1.81313       -0.09494
H          1.95460        1.83477       -0.58362
H          3.28893        0.63910       -0.61492
H          2.02316        0.60950       -1.89237
H         -0.84510        2.33194       -1.23040
H         -1.67822        2.75550        0.30668
H          0.10087        2.58629        0.27559
H         -2.62688       -1.46151        1.19339
H         -1.84365       -1.97376       -0.33480
H         -3.61426       -1.66272       -0.28866
