82
SITOSTANOL.gamout	Energy:   -1210.7267819
O          4.24467       -8.07065       -0.83142
C         -0.14265       -0.48892        0.25665
C          1.39799       -0.68695        0.33181
C          1.89354       -2.11977        0.60322
C          1.26996       -3.11369       -0.41546
C          1.66551       -4.62188       -0.12821
C         -0.21393        1.06121       -0.01808
C         -0.64101       -1.42383       -0.86491
C          3.06608       -4.68400        0.57656
C         -0.24702       -2.89139       -0.60406
C          1.88173        0.45245        1.24301
C          3.44567       -2.18053        0.52631
C          0.93423        1.63363        0.88735
C          3.97774       -3.55645        0.07052
C          1.72888       -5.37901       -1.48403
C         -0.84089       -0.82230        1.58874
C         -1.56171        1.82587        0.15181
C          3.71149       -6.08936        0.51677
C          0.64431       -5.31062        0.79825
C          2.31895       -6.79156       -1.41952
C          3.73787       -6.73760       -0.87169
C         -1.38318        3.34175       -0.15134
C         -2.70746        1.24654       -0.69585
C         -2.60037        4.23793        0.17360
C         -2.34603        5.77031        0.12923
C         -3.61102        6.59374        0.51892
C         -1.72620        6.21647       -1.21870
C         -4.15510        6.23427        1.91266
C         -3.36637        8.11207        0.46090
C         -2.63085        6.08052       -2.45061
H          1.76679       -0.43998       -0.69445
H          1.57857       -2.42013        1.62999
H          1.73694       -2.85252       -1.39514
H          0.09621        1.18887       -1.08254
H         -1.74104       -1.37126       -0.98336
H         -0.20353       -1.08392       -1.83119
H          2.89206       -4.48323        1.65691
H         -0.60115       -3.52349       -1.44523
H         -0.79763       -3.25117        0.29029
H          2.94749        0.70498        1.07618
H          1.78708        0.17029        2.31457
H          3.86816       -1.92138        1.52062
H          3.81048       -1.39809       -0.17453
H          1.47993        2.44198        0.36097
H          0.51590        2.09751        1.80730
H          4.04740       -3.59359       -1.03923
H          5.01417       -3.70136        0.43969
H          0.71367       -5.41513       -1.93050
H          2.34658       -4.78322       -2.19254
H         -0.53420       -0.14009        2.40643
H         -1.94156       -0.73868        1.48452
H         -0.62274       -1.85253        1.92937
H         -1.85673        1.74308        1.22517
H          4.74348       -6.01923        0.92557
H          3.16459       -6.79079        1.18352
H          0.48944       -4.73183        1.73260
H          0.99367       -6.31764        1.10136
H         -0.34175       -5.44776        0.31248
H          1.71953       -7.46466       -0.76842
H          2.32509       -7.24978       -2.42807
H          4.35711       -6.10724       -1.56229
H         -0.51628        3.72301        0.42961
H         -1.09875        3.45387       -1.22336
H         -2.44735        1.23824       -1.77696
H         -3.63235        1.84559       -0.58058
H         -2.96211        0.20947       -0.40536
H         -2.95138        3.97150        1.19342
H         -3.45007        3.99296       -0.50370
H          5.13940       -8.03094       -0.44469
H         -1.57611        5.99521        0.90750
H         -4.41014        6.35228       -0.22181
H         -1.38673        7.26987       -1.12902
H         -0.79563        5.63327       -1.38408
H         -5.03165        6.86705        2.16084
H         -3.38808        6.40705        2.70032
H         -4.48347        5.17918        1.98818
H         -4.27281        8.66369        0.78370
H         -2.53605        8.41166        1.13849
H         -3.11228        8.46768       -0.55657
H         -2.10320        6.41876       -3.36535
H         -2.94712        5.02992       -2.62437
H         -3.55534        6.68962       -2.36170
