16
STYRENE.gamout	Energy:    -309.4175609
C          0.87964        0.48896        1.99405
C          1.44085        1.53215        1.34322
C          2.80794        2.06328        1.50492
C          3.74952        1.51456        2.41268
C          3.21149        3.17393        0.72308
C          5.03657        2.05525        2.53026
C          4.50083        3.71714        0.83964
C          5.42015        3.15980        1.74448
H          1.42412       -0.09759        2.75218
H         -0.15753        0.18288        1.78722
H          0.82744        2.06946        0.59646
H          3.46651        0.65132        3.03504
H          2.49300        3.61445        0.01203
H          5.75170        1.61283        3.24225
H          4.78977        4.58114        0.22015
H          6.43272        3.58286        1.84004
