26
SUBERIC_ACID.gamout	Energy:    -613.7771744
C         35.05631       30.13960        0.02046
C         36.32698       29.28685        0.02085
C         36.04386       27.77790        0.02061
C         35.32604       31.63356        0.02108
C         37.31486       26.91514        0.02076
O         34.16576       32.34901        0.02042
O         36.42110       32.16607        0.02206
C         37.03173       25.40619        0.02072
C         38.30239       24.55343        0.02069
C         38.03265       23.05948        0.02099
O         39.19293       22.34401        0.02105
O         36.93759       22.52697        0.02115
H         34.41201       29.91889       -0.86063
H         34.41111       29.91837        0.90076
H         36.94467       29.55896        0.90468
H         36.94531       29.55910       -0.86249
H         35.42241       27.51541       -0.86677
H         35.42204       27.51520        0.90767
H         37.93640       27.17773        0.90805
H         37.93660       27.17773       -0.86640
H         34.44160       33.29284        0.02090
H         36.41373       25.13404       -0.86288
H         36.41372       25.13397        0.90429
H         38.94730       24.77456        0.90122
H         38.94700       24.77423       -0.86015
H         38.91708       21.40019        0.02123
