11
SUCCINIC_ANHYDRIDE.gamout	Energy:    -380.2547014
C          0.91367        1.05264        1.11108
C          0.67110        1.50554        2.55333
C          2.41937        1.20353        0.89828
C          2.05596        1.86008        3.09314
O          3.00590        1.66604        2.08260
O          2.36754        2.24949        4.18533
O          3.07199        0.98170       -0.08483
H          0.64208       -0.00474        0.91423
H          0.38894        1.66018        0.34610
H          0.22785        0.72852        3.20858
H          0.02399        2.40182        2.64420
