12
SUCCINIMIDE.gamout	Energy:    -360.4155058
O          2.31035       -0.64663        0.00230
O         -2.31040       -0.64650       -0.00229
N         -0.00003       -0.93492       -0.00000
C          0.76917        1.29323        0.00079
C         -0.76909        1.29327       -0.00078
C          1.18547       -0.18595        0.00118
C         -1.18548       -0.18588       -0.00118
H          1.22000        1.78011        0.88991
H          1.22181        1.78015       -0.88739
H         -1.21991        1.78019       -0.88989
H         -1.22171        1.78021        0.88741
H         -0.00005       -1.96007       -0.00001
