14
SUCCINIC_ACID.gamout	Energy:    -456.6462128
C          3.11750        0.84302        1.43489
C          4.11026        1.87877        0.91108
C          1.67543        1.22773        1.16317
C          5.45507        1.80368        1.60846
O          0.83934        0.16584        1.30564
O          1.27942        2.34398        0.87731
O          6.42606        2.42698        0.89009
O          5.66764        1.28521        2.69038
H          3.24000        0.74602        2.53721
H          3.30913       -0.17247        1.03097
H          3.69706        2.89777        1.08573
H          4.25925        1.80936       -0.18596
H         -0.06538        0.51999        1.15291
H          7.24042        2.36563        1.43819
