45
SUCROSE.gamout	Energy:   -1296.9826443
O         -1.35589        2.79198       -0.06094
C         -0.09386        2.72443        0.64379
C         -1.32480        2.50406       -1.44792
C         -0.40465        2.86614        2.13284
C          0.87295        3.75504        0.04499
O          2.10006        3.71786        0.75090
C          1.06289        3.37807       -1.42603
C         -0.28069        3.37532       -2.16985
O          1.96577        4.30077       -2.01462
O         -0.10620        3.00464       -3.52996
O         -1.02064        1.15033       -1.75613
O         -0.93531        1.68759        2.71228
C         -2.02643        0.15882       -1.44123
C         -1.90237       -0.31942        0.04393
O         -3.33680        0.68018       -1.59145
C         -1.83507       -0.96886       -2.46412
C         -3.33223       -0.22616        0.57571
O         -1.30708       -1.61523        0.10453
C         -3.93025        0.87443       -0.30740
O         -3.36304        0.09856        1.95793
C         -5.44778        0.80693       -0.39100
O         -2.64049       -2.09061       -2.18637
O         -5.98702        0.88830        0.93686
H          0.37097        1.72136        0.49535
H         -2.34552        2.73940       -1.81028
H          0.55416        3.07627        2.65058
H         -1.06760        3.75558        2.27164
H          0.40264        4.77215        0.08904
H          2.74515        4.18366        0.18079
H          1.47955        2.33800       -1.45553
H         -0.66291        4.41897       -2.16773
H          1.94875        4.10744       -2.97485
H         -0.10057        2.02313       -3.52339
H         -1.84571        1.51450        2.38285
H         -1.28685        0.40516        0.61111
H         -2.13967       -0.55745       -3.44815
H         -0.74677       -1.20787       -2.50710
H         -3.85032       -1.19353        0.36334
H         -1.11854       -1.81281        1.04189
H         -3.61502        1.85824        0.12048
H         -4.31257        0.28541        2.13664
H         -5.85207        1.59852       -1.05955
H         -5.75314       -0.17468       -0.81020
H         -2.25691       -2.46790       -1.36429
H         -6.02203        1.83276        1.18044
