7
SULFUR_HEXAFLUORIDE.gamout	Energy:    -996.5740233
S         -0.95829        0.30889        0.13877
F         -0.42828        1.01067        1.48925
F          0.32437        0.87254       -0.65776
F         -1.48829       -0.39290       -1.21170
F         -2.24094       -0.25475        0.93532
F         -1.77861        1.64456       -0.23516
F         -0.13798       -1.02679        0.51271
