15
SULFOLANE.gamout	Energy:    -705.5074943
S          0.54865        1.41896       -0.08711
O          2.03341        1.36557       -0.03853
O         -0.17520        2.70825       -0.19286
C         -0.08288        0.39993        1.32407
C         -0.01871        0.20522       -1.39506
C          0.05501       -1.02763        0.79926
C         -0.54025       -1.02854       -0.63358
H          0.54315        0.65472        2.20044
H         -1.13483        0.70537        1.49962
H         -0.78326        0.72325       -2.00404
H          0.88582        0.01734       -2.00488
H         -0.46099       -1.76103        1.45250
H          1.13114       -1.30279        0.77137
H         -0.29207       -1.96713       -1.16950
H         -1.64776       -0.97770       -0.56530
