19
SULFANILAMIDE.gamout	Energy:    -891.0981908
S          0.63278       -0.72470        2.63574
O          1.97321       -0.11257        2.53421
O          0.39664       -2.18234        2.59282
N          0.03533       -0.22807        4.15550
N         -2.85563        1.83170       -1.52693
C         -0.40887        0.03763        1.38158
C         -0.06805        1.30016        0.85924
C         -1.55429       -0.63583        0.91550
C         -2.05729        1.24595       -0.57658
C         -0.88490        1.90039       -0.10300
C         -2.37199       -0.03781       -0.04742
H          0.85470        1.79612        1.19844
H         -1.78654       -1.64135        1.29955
H         -0.60936        2.88587       -0.51331
H         -3.26399       -0.57235       -0.41337
H         -0.91927       -0.57741        4.31381
H          0.08144        0.79421        4.25938
H         -2.62558        2.74332       -1.91482
H         -3.68609        1.36009       -1.87672
