18
SULFANILIC_ACID.gamout	Energy:    -910.9556518
C          6.30280        1.90281       -0.59590
C          6.84714        0.60433       -0.38943
C          4.92107        2.10721       -0.59935
C          4.05659        1.01635       -0.39324
S          2.29629        1.27191       -0.42840
C          4.56879       -0.27741       -0.17761
C          5.94999       -0.48009       -0.17384
N          8.20963        0.40831       -0.35373
O          2.01146        2.70304       -0.22643
O          1.60807        0.23100        0.36786
O          1.99336        0.89926       -2.03780
H          6.98089        2.75696       -0.75468
H          4.49863        3.11119       -0.75489
H          3.87749       -1.11614       -0.00567
H          6.35280       -1.49082        0.00152
H          8.57374       -0.54129       -0.42453
H          8.82193        1.14174       -0.70937
H          1.12614        0.43571       -2.02154
