7
SULFURIC_ACID.gamout	Energy:    -699.9146862
O          1.66891       -0.03510        0.74332
S          1.59142        1.39782        1.01781
O          1.46652        2.44484        0.00650
O          2.89598        1.83027        1.93015
O          0.36277        1.56525        2.10565
H          3.17730        1.02422        2.41809
H          0.09883        2.51237        2.08870
