42
SULINDAC.gamout	Energy:   -1495.1479530
S         -3.42013        5.84150        0.72172
F         -2.60789       -3.93612       -1.33102
O          2.40297       -4.79141        0.36256
O          3.87110       -3.22280        1.07740
O         -4.26011        5.19677        1.81352
C          1.83793       -1.77269       -0.90625
C          0.37325       -1.90297       -0.92642
C          2.16816       -0.44621       -0.72552
C          0.92238        0.35231       -0.62460
C         -0.20249       -0.60573       -0.76810
C          2.78692       -2.92914       -1.08785
C          0.94629        1.71862       -0.48658
C         -0.42634       -3.03920       -1.11094
C         -1.59425       -0.45992       -0.85271
C          3.54953        0.12924       -0.60694
C         -0.13681        2.67802       -0.24379
C         -1.81658       -2.85608       -1.16138
C         -2.40857       -1.59187       -1.04827
C          3.10334       -3.63349        0.22919
C         -0.08778        3.95668       -0.85725
C         -1.18854        2.41728        0.66685
C         -2.13664        4.60641        0.25071
C         -1.07951        4.91617       -0.61960
C         -2.17857        3.37551        0.91635
C         -4.41078        5.70787       -0.84797
H          2.36049       -3.66309       -1.80048
H          3.75105       -2.56898       -1.49497
H          1.94591        2.17986       -0.56897
H         -0.00545       -4.04922       -1.20958
H         -2.06663        0.52788       -0.77705
H          3.79529        0.80782       -1.45412
H          3.66546        0.72298        0.32530
H          4.31208       -0.67057       -0.57314
H         -3.50230       -1.50379       -1.11183
H          0.74557        4.19463       -1.53695
H         -1.20071        1.46234        1.21135
H         -1.01988        5.90111       -1.10806
H         -2.99152        3.20448        1.63964
H          2.64092       -5.14374        1.24964
H         -5.29255        6.36114       -0.70219
H         -3.80796        6.05293       -1.71115
H         -4.72341        4.65230       -0.96532
