24
SYRINGIC_ACID.gamout	Energy:    -724.5746058
O          7.60334        2.05789       -1.37664
C          7.11838        3.22159       -2.02495
C          6.69874        1.24362       -0.76291
C          7.24728        0.09664       -0.12924
C          5.30862        1.45828       -0.71795
O          8.58128       -0.13027       -0.15952
C          6.38606       -0.81365        0.53815
C          4.46709        0.54090       -0.04845
O          7.06637       -1.87007        1.09875
C          5.00387       -0.60218        0.58425
C          2.99473        0.72972        0.02245
C          6.31888       -2.85717        1.79678
O          2.56645        1.85991       -0.61714
O          2.21314       -0.02582        0.58503
H          6.60818        3.91130       -1.31398
H          8.00333        3.73302       -2.44904
H          6.41214        2.97558       -2.85090
H          4.85747        2.33488       -1.19871
H          8.71274       -0.96857        0.33774
H          4.31357       -1.28889        1.09240
H          7.04801       -3.60445        2.16231
H          5.77657       -2.41904        2.66430
H          5.58365       -3.35878        1.12876
H          1.59226        1.86141       -0.49463
