16
TARTARIC_ACID.gamout	Energy:    -606.9621038
O          1.23858        1.10409        1.45333
C          0.67392        1.30459        0.23231
C          0.99810        2.69551       -0.32341
C         -0.34222        3.48412       -0.46942
C         -0.08439        4.69358       -1.37372
O         -0.31475        5.86673       -0.72348
O          0.30736        4.62515       -2.52079
O         -0.02583        0.48637       -0.32931
H         -1.06359        2.82789       -1.00498
O         -0.88077        3.80590        0.79363
H          1.41361        2.54671       -1.34412
O          1.93381        3.42416        0.43869
H          0.94181        0.21418        1.74841
H         -0.08373        6.58203       -1.35756
H         -0.49424        4.66632        1.05094
H          1.74057        3.22675        1.37675
