13
TDI-1.gamout	Energy:    -746.6908502
N         -1.00610       -0.44525       -0.26228
C          0.32095       -0.75749       -0.20449
C          0.47084       -2.17416       -0.39655
N         -0.76593       -2.72664       -0.57027
C          1.67509       -2.93771       -0.41498
C          1.33926        0.21494        0.02568
N          2.68174       -3.55061       -0.42402
N          2.19145        1.00405        0.22415
C         -1.58091       -1.65056       -0.48289
C         -3.07530       -1.77225       -0.59723
F         -3.46090       -3.01557       -0.97450
F         -3.71622       -1.50392        0.58269
F         -3.59697       -0.89822       -1.50792
