27
TERT-BUTYLCYCLOPENTANE.gamout	Energy:    -353.5318895
C          3.43241       -1.52091        0.50569
C          3.23895       -0.02101        0.82658
C          4.60342       -1.99419        1.42036
C          3.65574        0.08738        2.30344
C          4.91862       -0.80558        2.38459
C          5.43125       -1.19205        3.80965
C          6.70407       -2.06052        3.67066
C          4.37493       -1.97347        4.62294
C          5.80339        0.09366        4.58431
H          2.50375       -2.07777        0.75558
H          3.62975       -1.70400       -0.57094
H          3.91939        0.59905        0.20099
H          2.20521        0.33466        0.63299
H          5.50035       -2.27363        0.83042
H          4.31107       -2.90317        1.98727
H          2.84642       -0.31929        2.95140
H          3.84059        1.13289        2.62637
H          5.74495       -0.21741        1.91792
H          7.48728       -1.53432        3.08315
H          7.13272       -2.29396        4.66880
H          6.49703       -3.02662        3.16457
H          3.46476       -1.36709        4.81424
H          4.05707       -2.90766        4.11336
H          4.78584       -2.26641        5.61269
H          6.55770        0.69217        4.02921
H          4.92039        0.74312        4.75969
H          6.23523       -0.15326        5.57783
