21
TERT-AMYL_METHYL_ETHER.gamout	Energy:    -312.0426250
O          0.87200        0.39419        1.46268
C          0.96075       -0.67188        0.48595
C          2.32329       -0.64127       -0.25953
C          0.80737       -1.94339        1.33583
C         -0.19479       -0.58580       -0.53355
C          3.56352       -0.65132        0.64135
C          0.91048        1.72541        0.99512
H          2.35031       -1.50845       -0.95602
H          2.34828        0.25941       -0.91291
H         -0.19583       -1.96526        1.80756
H          1.56034       -1.96168        2.14816
H          0.92856       -2.85514        0.71611
H         -0.21550       -1.49344       -1.17110
H         -1.16867       -0.51135       -0.00711
H         -0.09293        0.28803       -1.20962
H          3.66279       -1.60266        1.20375
H          3.51784        0.16776        1.38789
H          4.49010       -0.52249        0.04461
H          0.81478        2.37792        1.88693
H          0.07303        1.97414        0.30029
H          1.86716        1.98839        0.48143
