20
TERT-BUTYL_ACETATE.gamout	Energy:    -386.0473410
O          1.84771        1.21425        0.01653
C          0.48388        0.63559        0.02874
C          2.95318        0.42747       -0.04300
C         -0.41196        1.87949        0.10055
C          0.23399       -0.14487       -1.27124
C          0.29989       -0.24223        1.27737
C          4.20327        1.29080       -0.03956
O          2.95252       -0.79089       -0.09153
H         -1.48019        1.58231        0.11741
H         -0.19629        2.46500        1.01713
H         -0.24565        2.53658       -0.77719
H         -0.82387       -0.47773       -1.31002
H          0.88896       -1.03350       -1.33250
H          0.42039        0.50136       -2.15376
H          0.53769        0.33384        2.19536
H         -0.75626       -0.57532        1.34781
H          0.95173       -1.13445        1.23517
H          4.18285        1.99808       -0.89338
H          4.24518        1.90005        0.88616
H          5.09680        0.64473       -0.10509
