14
TERT-BUTYL_CHLORIDE.gamout	Energy:    -617.8333492
C          1.01644        2.56059        0.77875
C          1.85589        2.03827        1.94972
C          3.30866        1.78079        1.53889
C          1.22020        0.80994        2.60676
Cl         1.88674        3.38919        3.23413
H         -0.01914        2.78916        1.10021
H          0.97152        1.79165       -0.02285
H          1.46131        3.48184        0.35335
H          3.34415        0.97678        0.77169
H          3.91817        1.45893        2.40680
H          3.76960        2.69215        1.10879
H          0.18942        1.02910        2.94958
H          1.81262        0.46997        3.47956
H          1.17283       -0.02351        1.87246
