30
TERT-BUTYLCYCLOHEXANE.gamout	Energy:    -392.8133743
C          2.09688        2.28772        4.22577
C          2.00486        2.15649        2.69227
C          1.01821        3.21734        2.15572
C          1.42346        0.76634        2.34826
C          3.40565        2.33428        2.00513
C          3.94602        3.79437        2.04004
C          4.51168        1.38869        2.51776
C          5.48045        3.88208        1.85531
C          5.72908        1.37756        1.56115
C          5.99139        2.76858        0.93319
H          2.73313        1.49575        4.67149
H          1.08885        2.19941        4.68242
H          2.51283        3.26954        4.53588
H          1.31083        4.24810        2.44015
H          0.94811        3.17930        1.04723
H         -0.00123        3.04120        2.56015
H          1.33811        0.62710        1.24949
H          0.40759        0.65255        2.78124
H          2.04553       -0.06105        2.74690
H          3.23670        2.07182        0.93314
H          3.67341        4.28083        3.00202
H          3.44474        4.38523        1.24459
H          4.13264        0.35410        2.64399
H          4.83332        1.72180        3.52941
H          5.99008        3.79540        2.84096
H          5.75604        4.88127        1.45793
H          5.56723        0.62944        0.75478
H          6.62522        1.03616        2.12191
H          7.07246        2.89878        0.71989
H          5.47381        2.85215       -0.04920
