17
TETRAHYDROFURFURYL_ALCOHOL.gamout	Energy:    -346.7176432
O          1.04879        0.28628       -0.94757
C          1.97427        0.02956        0.11177
C         -0.27169        0.46754       -0.40753
C          1.13813       -0.56377        1.25291
C         -0.16520        0.24604        1.11904
C         -1.22286       -0.51637       -1.11319
O         -2.57546       -0.34777       -0.71742
H          2.47702        0.97544        0.43756
H          2.76115       -0.65473       -0.27053
H         -0.62108        1.50724       -0.63226
H          0.95431       -1.64444        1.07358
H          1.61768       -0.46257        2.24759
H         -0.07053        1.21616        1.65063
H         -1.06628       -0.26411        1.51533
H         -1.07358       -0.42131       -2.21627
H         -0.93957       -1.55592       -0.84047
H         -2.87018        0.52298       -1.04644
