17
TETRAMETHYLSILANE.gamout	Energy:    -448.9948956
Si        -0.00021       -0.00043        0.00029
C         -0.93433       -0.17769       -1.64440
C          0.89920        1.67238        0.04749
C          1.26930       -1.40555        0.15410
C         -1.23402       -0.08848        1.44239
H         -1.47138       -1.14850       -1.70030
H         -1.68619        0.63037       -1.76968
H         -0.23964       -0.12787       -2.50992
H          1.63047        1.76071       -0.78420
H          0.18408        2.51763       -0.04275
H          1.45634        1.80490        0.99952
H          1.83701       -1.33555        1.10649
H          0.77435       -2.39974        0.13088
H          2.00418       -1.37581       -0.67833
H         -0.71798        0.01107        2.42112
H         -1.98832        0.72402        1.37537
H         -1.78037       -1.05566        1.44734
