17
TETRAMETHYLAMMONIUM+1.gamout	Energy:    -213.9884642
N         -1.74355        0.07507        0.12767
C         -0.66019       -0.21443        1.13396
H         -0.93392       -1.12120        1.70271
H         -0.56329        0.64627        1.82018
H          0.29347       -0.37843        0.59987
C         -3.05195        0.29143        0.84216
H         -3.83705        0.51215        0.09645
H         -2.94370        1.14182        1.53913
H         -3.31156       -0.62435        1.40298
C         -1.38975        1.31222       -0.65555
H         -0.42932        1.14515       -1.17561
H         -1.29754        2.16503        0.04087
H         -2.18943        1.51021       -1.39123
C         -1.87199       -1.09377       -0.81259
H         -2.67605       -0.88745       -1.54222
H         -2.11764       -1.99948       -0.22925
H         -0.91204       -1.23533       -1.34033
