6
TETRAFLUOROETHYLENE.gamout	Energy:    -475.1558534
C          2.18629        1.23493        0.11505
F          2.82680        2.39493        0.18108
F          2.99152        0.18047        0.10102
C          0.84531        1.13706        0.06665
F          0.20482       -0.02295        0.00062
F          0.04006        2.19151        0.08068
