13
TETRAHYDROFURAN.gamout	Energy:    -232.2726280
C          0.70899        2.12656        0.97791
C          1.87720        3.00080        1.46529
C          3.08677        2.21206        0.93783
O          2.70185        0.83207        0.94315
C          1.29083        0.71577        1.16004
H         -0.23297        2.28579        1.54126
H          0.50028        2.32364       -0.09602
H          1.84106        4.04368        1.08967
H          1.89308        3.04029        2.57610
H          3.34883        2.53067       -0.10190
H          3.99842        2.34049        1.56270
H          0.87174       -0.02548        0.44390
H          1.09313        0.33031        2.19163
