53
TETRAHYDROCANNABINOL.gamout	Energy:    -968.0490518
O          1.48953        0.11791       -0.74858
C          2.87157        0.11059       -0.33060
C          3.00751        1.01993        0.87102
C          3.34810       -1.32219       -0.02983
C          2.88091        2.48049        0.75264
C          3.18061        0.48505        2.11945
C          2.72221       -1.86388        1.26332
C          3.23868        3.28293        1.86943
C          2.38526        3.11602       -0.41191
O          3.33147        1.24358        3.23511
C          3.21348       -0.98777        2.42732
C          3.00183       -3.36059        1.52011
C          3.86704        2.60010        3.08090
C          3.08980        4.67683        1.78658
C          2.25469        4.51316       -0.50301
C          2.27909       -4.34776        0.58165
C          5.38988        2.47674        2.89165
C          3.53558        3.26700        4.41603
C          2.61452        5.28983        0.61723
C          1.73126        5.17376       -1.75849
C          2.59364       -5.82818        0.86494
C          1.84648       -6.81860       -0.04401
C          2.17479       -8.28875        0.24588
H          1.44952       -0.38738       -1.58394
H          3.50417        0.52974       -1.15350
H          4.45976       -1.33338        0.04981
H          3.08885       -1.96388       -0.89857
H          1.62193       -1.71371        1.16866
H          2.05437        2.48619       -1.25069
H          2.61613       -1.16466        3.34848
H          4.26077       -1.26935        2.69876
H          2.71453       -3.59826        2.57001
H          4.10278       -3.53757        1.46835
H          3.36568        5.30423        2.64647
H          2.53678       -4.12067       -0.47835
H          1.17917       -4.18537        0.66450
H          5.61765        1.90165        1.97217
H          5.84714        1.96155        3.76051
H          5.84626        3.48153        2.78624
H          2.44154        3.38891        4.53694
H          4.01774        4.26028        4.51028
H          3.90990        2.62382        5.23631
H          2.52064        6.38649        0.57849
H          1.53647        4.43172       -2.55712
H          2.45365        5.91893       -2.15572
H          0.78211        5.71960       -1.56622
H          2.35263       -6.05901        1.92903
H          3.69165       -5.99788        0.76547
H          2.07914       -6.58925       -1.10918
H          0.74920       -6.65603        0.06335
H          3.25667       -8.50035        0.10427
H          1.61217       -8.96950       -0.42487
H          1.91894       -8.56396        1.29156
