7
TFA-1.gamout	Energy:    -525.8635938
C         -0.94033       -0.00464        0.16504
C         -2.49799        0.05726       -0.15066
O         -2.83922        1.17411       -0.60835
O         -3.13184       -0.99261        0.10197
F         -0.56079        0.92442        1.10526
F         -0.49397       -1.20873        0.64337
F         -0.16976        0.25559       -0.94334
