21
THEOBROMINE.gamout	Energy:    -640.6270644
N          1.33107        0.02882       -0.45661
C          2.04243       -0.48642       -1.62534
C         -0.05015       -0.00126       -0.37070
C          2.08377        0.56575        0.60037
C         -0.73773        0.49035        0.74687
N         -0.90823       -0.48958       -1.31079
O          3.30738        0.61797        0.57836
N          1.32685        1.04115        1.68913
C         -0.07634        1.06709        1.89658
N         -2.08329        0.28516        0.46213
C         -2.11802       -0.29997       -0.77439
O         -0.57747        1.52520        2.92333
C         -3.20856        0.63071        1.32190
H          1.28750       -0.86026       -2.34015
H          2.64721        0.31608       -2.09325
H          2.72706       -1.30652       -1.32987
H          1.89436        1.42898        2.44993
H         -3.06838       -0.57537       -1.25249
H         -4.14719        0.33958        0.81348
H         -3.13241        0.09944        2.29079
H         -3.22069        1.71904        1.52655
