21
THEOPHYLLINE.gamout	Energy:    -640.6241640
O         -3.28695        2.60907       -1.60118
O         -0.67431       -1.22561       -1.94359
N         -1.36893       -0.62705        0.16274
N         -1.97211        0.67871       -1.76589
N         -3.31803        2.01981        1.42868
N         -2.24635        0.23731        2.29143
C         -2.07760        0.26993        0.93546
C         -2.72820        1.36282        0.36088
C         -2.72841        1.65917       -1.05047
C         -1.29533       -0.44565       -1.22842
C         -0.68154       -1.77707        0.74877
C         -1.86880        0.82921       -3.21990
C         -3.00019        1.30878        2.55258
H         -3.87766        2.87202        1.35379
H         -1.07720       -2.72102        0.32373
H          0.40410       -1.72941        0.53153
H         -0.85358       -1.74886        1.83995
H         -2.43760        1.73626       -3.49245
H         -0.80776        0.93017       -3.52259
H         -2.28810       -0.06017       -3.73063
H         -3.34190        1.60948        3.55177
