8
THIAZOLE.gamout	Energy:    -568.8474911
C          7.98784        2.09842       -0.15155
S          9.06833        1.05268        0.75885
N          6.77403        1.63479       -0.31563
C          7.76747       -0.08456        0.91888
C          6.64029        0.40399        0.28464
H          8.34504        3.06532       -0.53857
H          7.89919       -1.03062        1.45881
H          5.67478       -0.12194        0.23639
