16
THIACYCLOHEXANE.gamout	Energy:    -594.5187734
C         -8.19250       -0.22250       -0.23270
C         -7.10439        0.73940        0.27859
C         -5.68691        0.28407       -0.09099
H         -7.17530        0.83101        1.38541
H         -7.27666        1.75738       -0.13846
S         -5.25969       -1.36177        0.61132
H         -4.91798        0.97816        0.30746
H         -5.55761        0.25174       -1.19661
C         -8.04317       -1.65675        0.30605
H         -8.16201       -0.24686       -1.34733
H         -9.19501        0.17383        0.03827
C         -6.69657       -2.29632       -0.05775
H         -8.86484       -2.29422       -0.09214
H         -8.15016       -1.65303        1.41376
H         -6.58763       -2.39005       -1.16209
H         -6.60319       -3.31701        0.36763
