13
THIACYCLOPENTANE.gamout	Energy:    -555.2317069
C          1.78816        2.83180        2.52527
C          0.65894        1.94522        1.97429
C          2.90926        1.88481        2.98077
C          1.31310        0.95033        1.00422
S          2.95418        0.49577        1.74692
H          1.44262        3.47643        3.36204
H          2.16688        3.50207        1.72277
H         -0.13123        2.53842        1.46516
H          0.17445        1.39342        2.80966
H          2.70355        1.46702        3.98935
H          3.90298        2.37611        3.00587
H          1.48079        1.40824        0.00605
H          0.71410        0.02747        0.86416
