7
THIACYCLOPROPANE.gamout	Energy:    -476.6404067
C          2.02758        0.32955        0.88704
C          0.53665        0.34631        0.88704
S          1.30109        2.01387        0.85524
H          2.55157        0.05686        1.81989
H          2.55121        0.02155       -0.03497
H          0.00618        0.05032       -0.03498
H          0.00662        0.08566        1.81991
