13
THIOPHENOL.gamout	Energy:    -630.1856536
S          7.53436        3.20418       -1.01986
C          6.37006        1.89610       -0.67711
C          6.89354        0.62657       -0.33992
C          4.96938        2.07490       -0.72698
C          6.02657       -0.44064       -0.05875
C          4.63227       -0.26324       -0.10897
C          4.11191        0.99878       -0.44437
H          6.60934        4.16474       -1.29878
H          7.98418        0.47552       -0.29892
H          4.54622        3.05829       -0.98758
H          6.44941       -1.42403        0.20224
H          3.95587       -1.10339        0.11182
H          3.02187        1.15387       -0.48788
