9
THIOPHENE.gamout	Energy:    -552.8121510
C          2.99171        0.13744        0.89399
C          1.55883        0.12749        0.91162
C          3.53746        0.31674        2.15217
C          1.04151        0.29950        2.18273
S          2.30304        0.47437        3.36425
H          3.59870        0.01642       -0.01498
H          0.93151       -0.00203        0.01774
H          4.59594        0.36551        2.43838
H         -0.01022        0.33359        2.49467
