25
THYMOL.gamout	Energy:    -464.3834666
C         -5.47657        4.38494        1.00757
C         -4.28490        3.65019        0.43490
H         -5.30394        4.68304        2.06445
H         -6.39153        3.76062        0.97951
H         -5.68685        5.31836        0.44207
C         -3.02212        4.27502        0.37301
C         -1.89771        3.61295       -0.15732
C         -1.99965        2.28448       -0.64945
C         -4.39192        2.33236       -0.05352
C         -3.26705        1.67547       -0.58170
H         -5.36445        1.81571       -0.02012
H         -2.90764        5.30846        0.74762
H         -3.37825        0.64457       -0.95611
C         -0.78151        1.56010       -1.21957
C         -0.42743        0.30642       -0.39329
H         -0.26290        0.55912        0.67449
H          0.49784       -0.17413       -0.77737
H         -1.23781       -0.45292       -0.43634
C         -0.96381        1.21729       -2.71326
H          0.07303        2.26318       -1.14098
H         -0.04386        0.74913       -3.12468
H         -1.18231        2.12495       -3.31249
H         -1.79890        0.50115       -2.87006
O         -0.67222        4.22660       -0.21692
H         -0.76324        5.12427        0.15496
