36
TOLBUTAMIDE.gamout	Energy:   -1200.7831144
S          0.98582        2.00533        0.37767
O          0.98850        2.78270       -0.87091
O          1.42117        2.57874        1.67082
O         -1.24608        0.68595       -1.33100
N         -2.87060        1.05631        0.25169
N         -0.63640        1.52168        0.74107
C         -4.14095       -0.99944       -0.46739
C         -3.95624        0.52492       -0.57129
C         -4.51220       -1.50493        0.93390
C          1.85858        0.45928        0.09497
C         -4.65418       -3.02973        1.01455
C         -1.57040        1.06037       -0.20720
C          1.77336       -0.16275       -1.16101
C          2.64136       -0.07440        1.13334
C          3.27687       -1.92746       -0.34543
C          2.48028       -1.35849       -1.36416
C          3.34518       -1.26503        0.90285
C          4.04373       -3.20988       -0.57387
H         -3.20011       -1.48354       -0.81163
H         -4.92498       -1.30266       -1.19798
H         -4.88905        1.05209       -0.27544
H         -3.73704        0.79772       -1.62403
H         -5.46285       -1.02281        1.26144
H         -3.73424       -1.16599        1.65506
H         -3.08860        1.44133        1.17080
H         -3.70664       -3.53740        0.73354
H         -4.92081       -3.36448        2.03841
H         -5.44308       -3.40016        0.32539
H         -0.89040        1.76064        1.70492
H          1.13956        0.27449       -1.94567
H          2.69323        0.45057        2.09897
H          2.41521       -1.85971       -2.34368
H          3.96450       -1.68983        1.71022
H          3.75369       -3.98866        0.16348
H          3.86880       -3.61939       -1.58810
H          5.13687       -3.05002       -0.45462
