15
TOLUENE.gamout	Energy:    -271.3625298
C          5.01920        0.86628        2.13405
C          3.61304        1.42534        2.13638
C          2.87277        1.52882        0.93638
C          3.00627        1.87167        3.33030
C          1.57403        2.06287        0.92935
C          1.70633        2.40675        3.32892
C          0.98443        2.50529        2.12728
H          5.75024        1.61516        1.75663
H          5.34507        0.57288        3.15232
H          5.10361       -0.02518        1.47833
H          3.32491        1.18323       -0.00859
H          3.56448        1.79716        4.27874
H          1.01604        2.13376       -0.01840
H          1.25441        2.74776        4.27433
H         -0.03469        2.92349        2.12345
