94
TORULARHODIN.gamout	Energy:   -1704.6724683
O         -1.17121       -0.33566       -0.51019
O         -0.04456       -2.10337        0.34481
C        -28.47130        8.83145       -8.24868
C        -29.88944        9.01964       -8.84248
C        -30.48746       10.39795       -8.58203
C        -27.57962       10.05996       -8.55091
C        -29.60422       11.45435       -9.24122
C        -28.12096       11.23985       -9.03874
C        -28.60941        8.61568       -6.72158
C        -27.91388        7.54673       -8.90804
C        -26.13500       10.02099       -8.32804
C        -27.27991       12.45436       -9.39523
C        -25.34582        9.10588       -7.65695
C        -23.91060        9.14948       -7.47476
C        -23.07451       10.25950       -8.07061
C        -23.30003        8.13040       -6.73884
C        -21.90614        7.99435       -6.45342
C        -21.35279        6.94295       -5.72750
C        -19.97262        6.71863       -5.39737
C        -18.90272        7.70205       -5.81706
C        -19.62691        5.56306       -4.68014
C        -18.32200        5.16533       -4.27202
C        -18.02555        3.98661       -3.58306
C        -16.71316        3.59056       -3.19648
C        -16.30745        2.41891       -2.53854
C        -14.90827        2.22344       -2.28052
C        -17.28681        1.35475       -2.10586
C        -14.30697        1.12578       -1.66954
C        -12.17367       -0.04970       -0.91508
C        -12.89744        1.00710       -1.47969
C        -10.74117        0.05030       -0.86704
C         -7.44404       -1.60309        0.04871
C        -12.83902       -1.28991       -0.37023
C         -9.85037       -0.89486       -0.37383
C         -8.43226       -0.72111       -0.39026
C         -6.06256       -1.21500       -0.09495
C         -7.76308       -2.94570        0.65883
C         -4.94932       -1.95628        0.25879
C         -3.60017       -1.50136        0.06135
C         -2.43808       -2.17455        0.37547
C         -2.35837       -3.53116        1.01856
C         -1.11721       -1.56776        0.08550
H        -30.54234        8.22007       -8.43431
H        -29.84347        8.85070       -9.94198
H        -31.52142       10.45630       -8.97787
H        -30.56097       10.59051       -7.48877
H        -29.80278       11.49017      -10.34218
H        -29.86632       12.47413       -8.88078
H        -29.22511        7.71490       -6.51675
H        -27.63209        8.47858       -6.22274
H        -29.10303        9.48084       -6.23533
H        -27.81008        7.67649      -10.00523
H        -26.92936        7.23591       -8.51464
H        -28.62101        6.70844       -8.73557
H        -25.60038       10.88527       -8.75041
H        -26.78735       12.89672       -8.50213
H        -26.47679       12.22273      -10.12705
H        -27.90836       13.24800       -9.84499
H        -25.82468        8.23800       -7.17680
H        -22.52221       10.81704       -7.28474
H        -22.31626        9.85539       -8.77426
H        -23.68094       10.99329       -8.63124
H        -23.96309        7.34407       -6.33423
H        -21.23150        8.77753       -6.83961
H        -22.05404        6.17271       -5.35583
H        -18.37138        8.12301       -4.93670
H        -18.13390        7.21810       -6.45629
H        -19.31730        8.55267       -6.38683
H        -20.45613        4.88391       -4.40996
H        -17.47542        5.83163       -4.52010
H        -18.87187        3.32002       -3.33576
H        -15.90218        4.29484       -3.45858
H        -14.24150        3.03821       -2.61879
H        -17.06293        0.38074       -2.59301
H        -17.23333        1.18212       -1.00920
H        -18.33171        1.61614       -2.35127
H        -14.95153        0.29987       -1.32384
H        -12.29473        1.86184       -1.83877
H        -10.31251        0.98222       -1.27956
H        -12.49546       -2.20068       -0.90767
H        -12.59024       -1.44089        0.70262
H        -13.93997       -1.24962       -0.45471
H        -10.25638       -1.83178        0.04371
H         -8.07347        0.23491       -0.81459
H         -5.88992       -0.21866       -0.54233
H         -7.31037       -3.77307        0.07006
H         -7.35051       -3.02583        1.68791
H         -8.85018       -3.13388        0.71905
H         -5.09747       -2.95330        0.70698
H         -3.47866       -0.50493       -0.39550
H         -1.80588       -4.24415        0.36977
H         -1.77809       -3.47896        1.96409
H         -3.35547       -3.95317        1.23767
H         -0.23001       -0.08412       -0.63133
