94
TORULENE.gamout	Energy:   -1555.5061564
C         -8.66248       -3.06017       -1.28984
C        -10.18654       -3.25440       -1.49230
C        -11.03349       -2.46017       -0.50455
C         -8.32387       -1.56340       -1.08981
C        -10.78293       -0.97402       -0.74493
C         -9.31910       -0.62118       -0.88221
C         -8.21710       -3.88861       -0.05968
C         -7.99539       -3.62953       -2.56602
C         -6.94246       -1.08635       -1.09926
C         -9.03702        0.86735       -0.75921
C         -5.73745       -1.75901       -1.09730
C         -4.42963       -1.13721       -1.07717
C         -4.33596        0.36821       -1.07125
C         -3.30090       -1.95522       -1.06489
C         -1.92528       -1.56589       -1.04333
C         -0.86529       -2.46258       -1.03767
C          0.53621       -2.14223       -1.00928
C          0.95358       -0.69248       -0.97516
C          1.46125       -3.19193       -1.01242
C          2.88379       -3.13100       -0.98113
C          3.69862       -4.26276       -0.99236
C          5.12057       -4.24972       -0.94891
C          5.97840       -5.35349       -0.96163
C          7.41349       -5.23472       -0.89123
C          5.45722       -6.77320       -1.04620
C          8.20703       -4.09865       -0.78727
C         10.54526       -3.10797       -0.58353
C          9.62947       -4.15726       -0.71101
C         15.49182       -2.10680       -0.15173
C         11.94571       -3.42651       -0.51549
C         14.37205       -2.92159       -0.30834
C         12.99755       -2.53265       -0.37256
C         10.12112       -1.66205       -0.50983
C         16.79970       -2.72230       -0.11555
C         15.39568       -0.60776       -0.01553
C         20.52638       -2.18286        0.23106
C         18.00952       -2.07945        0.04166
C         19.28681       -2.74976        0.06737
C         21.76639       -3.03588        0.22877
C         20.76218       -0.70902        0.42335
H        -10.44894       -2.93263       -2.52539
H        -10.41077       -4.34005       -1.44043
H        -12.11008       -2.70117       -0.61212
H        -10.75318       -2.72228        0.53948
H        -11.32097       -0.63948       -1.66852
H        -11.22476       -0.35593        0.06832
H         -8.69948       -3.52615        0.87036
H         -7.12426       -3.84473        0.10505
H         -8.49840       -4.95346       -0.19773
H         -6.89103       -3.61696       -2.53384
H         -8.31077       -3.06247       -3.46632
H         -8.31216       -4.68424       -2.70954
H         -6.85944        0.01014       -1.07383
H         -9.97843        1.43438       -0.61971
H         -8.38409        1.10382        0.10860
H         -8.53565        1.28012       -1.66134
H         -5.72093       -2.86035       -1.09280
H         -3.29209        0.73153       -1.05687
H         -4.82918        0.80602       -1.96656
H         -4.85160        0.79924       -0.18506
H         -3.49139       -3.04449       -1.07216
H         -1.69402       -0.48707       -1.03047
H         -1.10889       -3.54092       -1.05595
H          0.53944       -0.17641       -0.08179
H          2.05133       -0.56527       -0.95364
H          0.57293       -0.14260       -1.86341
H          1.03047       -4.20985       -1.04150
H          3.37457       -2.14146       -0.94490
H          3.18639       -5.24106       -1.03441
H          5.58680       -3.25017       -0.89617
H          7.95683       -6.19788       -0.91577
H          4.35613       -6.82986       -1.09929
H          5.78322       -7.36757       -0.16475
H          5.86248       -7.29065       -1.94329
H          7.72458       -3.10667       -0.75236
H         10.06847       -5.17162       -0.74984
H         12.19405       -4.50178       -0.58097
H         14.57081       -4.00632       -0.39066
H         12.76160       -1.45744       -0.29988
H         10.57190       -1.06849       -1.33478
H         10.45675       -1.19092        0.43982
H          9.02467       -1.53581       -0.57140
H         16.81229       -3.82255       -0.22558
H         15.96228       -0.09400       -0.82279
H         14.35452       -0.23905       -0.05341
H         15.83579       -0.26381        0.94617
H         18.00824       -0.98214        0.15752
H         19.25851       -3.84786       -0.05910
H         21.53556       -4.10938        0.08279
H         22.47099       -2.72209       -0.57543
H         22.33256       -2.93227        1.18309
H         19.83229       -0.11074        0.42103
H         21.42862       -0.30685       -0.37332
H         21.28942       -0.51579        1.38516
