19
TRANS-BETA-METHYLSTYRENE.gamout	Energy:    -348.7066305
C          2.97676        1.45714        3.81208
C          3.76222        1.28075        4.98076
C          3.19394        1.38971        6.25671
C          1.59962        1.74732        3.98294
C          3.52066        1.35294        2.44607
C          1.02872        1.85676        5.26076
C          1.82336        1.67828        6.40579
C          4.79756        1.08438        2.08023
C          5.28312        0.99256        0.66315
H          4.83579        1.05398        4.88787
H          3.82588        1.24814        7.14824
H          0.97034        1.88823        3.08851
H          2.77969        1.51671        1.64059
H         -0.04475        2.08308        5.36256
H          1.38014        1.76299        7.41057
H          5.55957        0.91569        2.86399
H          6.09064        1.73196        0.46184
H          5.72140       -0.00792        0.44838
H          4.46594        1.17174       -0.06544
