12
TRANS-CROTONIC_ACID.gamout	Energy:    -306.2639142
C          2.43519        1.97568        1.32246
C          3.85352        1.54637        1.42513
C          2.11927        3.27144        1.10124
O          3.94996        0.20248        1.64702
O          4.83612        2.26669        1.32984
C          0.73513        3.82417        0.97752
H          1.66181        1.19764        1.43343
H          2.96587        3.97743        1.00455
H          4.91438        0.01939        1.69894
H          0.59709        4.32306       -0.00735
H          0.55334        4.60931        1.74445
H         -0.04304        3.04233        1.08563
