18
TRANS-1,2-DIMETHYLCYCLOBUTANE.gamout	Energy:    -235.6638721
C          0.61677        1.54583       -0.27176
C          0.56290        0.00774       -0.02364
C          2.12690        0.00774        0.02363
C          2.07303        1.54583        0.27175
C         -0.16023       -0.89181       -1.02031
C          2.85002       -0.89181        1.02031
H         -0.13296        2.18215        0.24299
H          0.58338        1.77608       -1.35853
H          0.17659       -0.18307        1.00442
H          2.51322       -0.18307       -1.00442
H          2.82275        2.18214       -0.24302
H          2.10643        1.77609        1.35852
H         -1.25632       -0.70834       -1.01718
H         -0.00481       -1.96792       -0.78974
H          0.20462       -0.71568       -2.05588
H          3.94611       -0.70834        1.01719
H          2.69460       -1.96792        0.78974
H          2.48517       -0.71568        2.05588
