28
trans-DECAHYDRONAPHTHALENE.gamout	Energy:    -391.6335317
C         -2.67329       -0.63727        0.14705
C         -1.58568        0.44604        0.23582
C         -0.08324       -1.13844        1.54724
H         -3.68013       -0.16959        0.10312
H         -2.55228       -1.20237       -0.80624
C         -2.58621       -1.61641        1.32690
H         -1.78002        1.09636        1.12175
H         -1.63682        1.11384       -0.65201
C         -0.16950       -0.15036        0.36100
C         -1.17689       -2.21955        1.44787
H         -0.97318       -2.86315        0.55915
H         -1.12026       -2.89049        2.33266
H         -2.83599       -1.07670        2.26946
H         -3.34294       -2.42255        1.21973
C          0.92418        0.92984        0.46073
H          0.02999       -0.74372       -0.56681
C          2.33256        0.32625        0.57929
H          0.72120        1.57248        1.35028
H          0.86647        1.60136       -0.42318
C          1.33288       -1.73318        1.66994
H         -0.28245       -0.54537        2.47532
C          2.42017       -0.65037        1.75982
H          1.52713       -2.38228        0.78311
H          1.38420       -2.40110        2.55666
H          3.42627       -1.11836        1.80407
H          2.29822       -0.08435        2.71243
H          3.08954        1.13201        0.68406
H          2.58048       -0.21492       -0.36303
