10
TRANS-CROTONONITRILE.gamout	Energy:    -209.9925350
N          2.43566       -0.20998       -0.00006
C         -2.55269       -0.00437       -0.00004
C         -1.10627       -0.38279        0.00004
C         -0.07291        0.49767        0.00003
C          1.30068        0.09794        0.00002
H         -3.07119       -0.42941        0.88777
H         -2.70344        1.09375       -0.00012
H         -3.07110       -0.42954       -0.88784
H         -0.86931       -1.46246        0.00011
H         -0.26150        1.58678       -0.00008
