6
TRANS-1,2-DIIODOETHYLENE.gamout	Energy:    -672.9921210
C          2.27513        1.87230       -0.79699
C          2.29360        2.50356       -1.97827
I          0.90667        2.04483       -3.51193
I          3.66236        2.33195        0.73540
H          1.56309        1.08113       -0.52039
H          3.00568        3.29472       -2.25479
