24
TRANS-1,4-DIMETHYLCYCLOHEXANE.gamout	Energy:    -314.2537301
C          5.81111        0.82702        1.44576
C          4.84562        1.90606        1.95892
C          3.84173        1.35474        3.01519
C          4.08145        2.57847        0.78508
C          2.50903        0.93239        2.37423
C          2.76484        3.21493        1.25256
C          1.75390        2.14424        1.75001
C          0.72931        2.75515        2.71764
H          5.25839       -0.02629        0.99348
H          6.48911        1.22954        0.66305
H          6.44462        0.41843        2.26156
H          5.45711        2.69429        2.45581
H          4.29769        0.50116        3.56296
H          3.64060        2.13222        3.78509
H          4.73331        3.33187        0.29211
H          3.85448        1.81692        0.00230
H          2.71191        0.16984        1.58981
H          1.85974        0.42737        3.12235
H          2.98206        3.93172        2.07870
H          2.30744        3.82110        0.44075
H          1.19579        1.76940        0.86126
H          1.21685        3.08795        3.66072
H          0.23175        3.64427        2.27421
H         -0.06495        2.02836        2.99169
