26
TRANS-STILBENE.gamout	Energy:    -540.3121644
C          5.32331        2.72393        1.89542
C          4.61191        3.54916        2.71454
C          3.33236        4.20334        2.41602
C          6.60315        2.06945        2.19242
C          2.78552        5.11258        3.35876
C          2.59996        3.97323        1.22104
C          7.23863        2.13724        3.46082
C          7.25096        1.32746        1.17050
C          1.56821        5.76813        3.11930
C          1.38498        4.62733        0.98168
C          8.46531        1.50082        3.68861
C          8.48003        0.68984        1.39834
C          0.86114        5.52973        1.92819
C          9.09512        0.77412        2.65922
H          4.92601        2.51491        0.88591
H          5.02181        3.77954        3.71420
H          3.33481        5.30540        4.29515
H          2.98630        3.26573        0.47114
H          6.76157        2.69229        4.28345
H          6.77532        1.25787        0.17817
H          1.16818        6.47008        3.86830
H          0.83655        4.42950        0.04686
H          8.93636        1.56868        4.68230
H          8.96066        0.12257        0.58531
H         -0.09526        6.04155        1.73740
H         10.05915        0.27399        2.84270
