24
TRANS-2-OCTENE.gamout	Energy:    -314.2317660
C          4.96958        3.89970        3.34916
C          4.08027        4.18705        2.11521
C          2.73818        3.43780        2.08746
C          5.45127        2.47554        3.45939
C          1.85980        3.80360        0.88022
C          6.73828        2.08021        3.36384
C          0.51830        3.06062        0.84207
C          7.22793        0.66311        3.46060
H          4.39349        4.16656        4.26722
H          5.84839        4.58048        3.32427
H          3.87948        5.28197        2.07477
H          4.65715        3.94418        1.19400
H          2.91785        2.33859        2.08275
H          2.17822        3.65160        3.02821
H          4.67825        1.69954        3.62533
H          1.67685        4.90264        0.88306
H          2.42495        3.59439       -0.05668
H          7.51205        2.85739        3.20297
H         -0.09229        3.27392        1.74592
H         -0.08541        3.35243       -0.04239
H          0.66509        1.95995        0.79702
H          6.39285       -0.04997        3.62091
H          7.76844        0.35410        2.53812
H          7.95032        0.53642        4.29781
