24
TRANS-4-OCTENE.gamout	Energy:    -314.2299318
C          4.44473        1.70984        1.00138
C          3.69498        2.09910        2.05356
C          2.37171        2.81711        1.96479
C          5.75968        0.96419        1.02592
C          1.19720        2.05151        2.61919
C          6.46302        0.80812        2.38627
C          0.83872        0.73757        1.91545
C          7.07647        2.10524        2.93378
H          4.05803        1.93694       -0.01219
H          4.05060        1.88220        3.07963
H          2.46262        3.80825        2.46756
H          2.13278        3.02831        0.89791
H          5.58206       -0.04606        0.58520
H          6.45798        1.45714        0.30822
H          1.44937        1.84716        3.68515
H          0.30717        2.71889        2.64148
H          5.74904        0.38029        3.12573
H          7.26734        0.04765        2.27687
H          0.52858        0.91353        0.86257
H          1.70363        0.04171        1.89012
H          0.00170        0.21820        2.42703
H          7.84818        2.50368        2.24029
H          6.31490        2.90059        3.06754
H          7.56725        1.93962        3.91569
