27
TRANS,CIS-1,2,4-TRIMETHYLCYCLOHEXANE.gamout	Energy:    -353.5473091
C          5.20163        1.32681        4.62984
C          4.36871        1.10821        3.35575
C          5.00496        1.74966        2.09214
C          2.92416        1.61444        3.56002
C          6.41937        1.22958        1.78762
C          4.08732        1.56319        0.86467
C          2.01235        1.42322        2.33354
C          2.65900        2.07322        1.09560
C          0.59045        1.94309        2.58716
H          5.34963        2.41114        4.82887
H          4.69092        0.89452        5.51632
H          6.20316        0.85583        4.56450
H          4.31747        0.00695        3.16809
H          5.08098        2.84762        2.29085
H          2.95514        2.70107        3.81721
H          2.47797        1.10624        4.44427
H          6.41921        0.12605        1.64778
H          6.81251        1.68283        0.85326
H          7.14229        1.46465        2.59500
H          4.54064        2.07290       -0.01407
H          4.05484        0.47850        0.60522
H          1.94601        0.32591        2.13419
H          2.03427        1.88316        0.19461
H          2.67242        3.18010        1.23459
H         -0.06442        1.78014        1.70504
H          0.11971        1.43505        3.45529
H          0.59512        3.03448        2.80101
