22
TRANS-1-PHENYL-1-BUTENE.gamout	Energy:    -387.9884084
C          6.30747        1.78026        5.75196
C          5.28926        0.81376        5.69417
C          6.28839        2.85728        4.84421
C          4.26668        0.92766        4.74087
C          4.22636        2.00579        3.82035
C          5.26560        2.96958        3.89180
C          3.11564        2.05440        2.85329
C          2.84200        3.01831        1.94085
C          1.68504        3.01294        0.97271
C          0.74675        1.80447        1.04098
H          7.11365        1.69565        6.49773
H          5.29038       -0.03608        6.39545
H          7.08526        3.61767        4.88002
H          3.47029        0.16577        4.70060
H          5.27634        3.81738        3.18856
H          2.43884        1.18390        2.90919
H          3.50528        3.90087        1.87629
H          2.09620        3.11217       -0.06043
H          1.09882        3.95112        1.12293
H          0.27219        1.71244        2.04043
H          1.28639        0.85573        0.83764
H         -0.06765        1.89133        0.29292
