24
TRANS-1,2-DIMETHYLCYCLOHEXANE.gamout	Energy:    -314.2630863
C          2.92783        2.32263        0.94011
C          1.64007        1.49096        0.84769
C          0.87234        1.51461        2.17826
C          3.84906        1.89256        2.10452
C          3.07267        1.90343        3.45298
C          5.11977        2.75613        2.13123
C          1.77248        1.07432        3.34222
C          3.91729        1.42185        4.64269
H          3.49338        2.26669       -0.01676
H          2.66269        3.39816        1.07748
H          0.99971        1.86324        0.01845
H          1.89915        0.43705        0.59203
H          0.50351        2.54878        2.37121
H         -0.03020        0.86753        2.12175
H          4.15510        0.83341        1.91595
H          2.77757        2.96499        3.64618
H          4.87869        3.81196        2.38631
H          5.86503        2.39495        2.86871
H          5.61751        2.76325        1.13817
H          2.04772        0.00058        3.21079
H          1.21266        1.13165        4.30244
H          4.79463        2.07257        4.83602
H          3.31417        1.40034        5.57514
H          4.29643        0.39006        4.47095
