24
TRANS-1-METHYL-3-ETHYLCYCLOPENTANE.gamout	Energy:    -314.2540694
C          4.35197        1.35123        0.95146
C          2.86233        1.27342        1.30973
C          2.51432        1.79016        2.71426
C          3.13384        0.98578        3.89131
C          1.00511        1.79059        3.04438
C          2.14602        1.11563        5.10168
C          0.97515        1.98895        4.56710
C          2.78697        1.66232        6.38288
H          4.72781        2.39607        1.00033
H          4.97415        0.74437        1.64277
H          4.54254        0.97854       -0.07679
H          2.27337        1.85058        0.56126
H          2.50892        0.21913        1.22479
H          2.86987        2.84567        2.79246
H          3.24181       -0.08187        3.59719
H          4.15354        1.34058        4.15186
H          0.43716        2.56092        2.48063
H          0.56725        0.80016        2.77852
H          1.74169        0.10354        5.32685
H          1.17160        3.05910        4.80516
H          0.00106        1.72873        5.03236
H          3.23264        2.66648        6.20917
H          3.59594        0.99702        6.75261
H          2.04131        1.76564        7.19996
