24
TRANS-3-OCTENE.gamout	Energy:    -314.2309999
C          5.36431        1.69133        1.85224
C          3.98397        2.11532        1.42016
C          3.42817        3.30345        2.23623
C          6.46442        1.71878        1.07138
C          2.02020        3.77189        1.82208
C          7.86664        1.31480        1.45943
C          0.89612        2.76085        2.08592
C          8.05882        0.82364        2.89709
H          5.45744        1.34733        2.90000
H          3.99481        2.38235        0.33921
H          3.28976        1.24842        1.52077
H          3.42236        3.03316        3.31821
H          4.13856        4.15438        2.14075
H          6.34708        2.06987        0.02697
H          1.79255        4.71500        2.36678
H          2.02909        4.04264        0.74108
H          8.21312        0.52945        0.74614
H          8.54449        2.17997        1.26515
H          1.02131        1.82632        1.49933
H         -0.09560        3.18139        1.81731
H          0.85402        2.47367        3.15915
H          7.77745        1.60301        3.63636
H          7.44080       -0.07454        3.10786
H          9.11764        0.55160        3.08577
