13
TRANS-1,3-PENTADIENE.gamout	Energy:    -195.1612097
C          2.08442        1.77100        0.90810
C          3.40796        1.16118        0.93098
C          4.57311        1.85672        0.88376
C          0.91612        1.08696        0.95392
C          5.94857        1.25963        0.90533
H          2.05806        2.87559        0.84869
H          3.44339        0.05615        0.99088
H          4.51746        2.96122        0.82416
H          0.89868       -0.01479        1.01371
H         -0.05687        1.60199        0.93352
H          6.52604        1.54154       -0.00364
H          5.91923        0.15223        0.96249
H          6.53864        1.63216        1.77279
