27
TRANS-1-METHYL-2-ETHYLCYCLOHEXANE.gamout	Energy:    -353.5435392
C          0.89704        1.90797        4.36435
C          1.81131        1.25750        3.31611
C          3.29742        1.67787        3.38858
C          4.12304        1.20143        2.15677
C          3.95165        1.19440        4.70406
C          3.58451        1.72410        0.81391
C          5.61173        1.59022        2.30850
C          6.23814        1.10214        3.62276
H          1.15988        1.61466        5.40178
H          0.94436        3.01691        4.30752
H         -0.16180        1.61526        4.20360
H          1.41055        1.49547        2.30790
H          1.75291        0.14741        3.40472
H          3.33323        2.79656        3.38585
H          4.06808        0.08479        2.13854
H          3.38059        1.58264        5.57448
H          4.24328        1.40651       -0.02196
H          2.56422        1.35777        0.58095
H          3.55394        2.83602        0.80436
H          5.69459        2.70178        2.25417
H          6.18802        1.19946        1.44076
H          7.29664        1.43509        3.69365
H          3.86545        0.08279        4.75178
H          6.26228       -0.01229        3.62652
C          5.42947        1.59379        4.83179
H          5.50515        2.70359        4.90168
H          5.85617        1.19341        5.77723
