21
TRANS-2-HEPTENE.gamout	Energy:    -274.9490367
C          2.88525        3.33540        1.63633
C          4.19341        3.15357        2.44236
C          5.03031        1.97161        2.02135
C          1.86535        2.19505        1.78476
C          6.26072        2.04660        1.47109
C          0.56336        2.43694        1.01207
C          7.09902        0.87884        1.03317
H          3.14328        3.46059        0.55977
H          2.40466        4.29154        1.94629
H          3.93095        3.05240        3.52251
H          4.80334        4.07951        2.35842
H          4.58681        0.96778        2.17241
H          1.63929        2.04523        2.86584
H          2.32237        1.24023        1.44094
H          6.70618        3.05077        1.32273
H         -0.14931        1.59518        1.13602
H          0.75559        2.55262       -0.07630
H          0.05014        3.36174        1.35382
H          7.34879        0.94251       -0.04961
H          6.58667       -0.08923        1.20934
H          8.07426        0.85317        1.56936
