21
TRANS-1,3-DIMETHYLCYCLOPENTANE.gamout	Energy:    -274.9720012
C          1.90936        2.62578        1.88347
C          0.43130        2.52346        1.49273
C          2.72940        1.31468        1.66286
C          2.70833        3.70642        1.11494
C          4.12806        1.73681        1.10561
C          4.17043        3.27321        1.29855
C          5.31080        0.98632        1.72705
H          1.96225        2.88656        2.96582
H          0.32219        2.26448        0.41649
H         -0.09521        1.74039        2.07900
H         -0.10486        3.48146        1.66304
H          2.20801        0.63824        0.95109
H          2.83140        0.74733        2.61336
H          2.49886        4.73554        1.47748
H          2.43663        3.67893        0.03410
H          4.13509        1.54149        0.00861
H          4.50616        3.51439        2.33391
H          4.87582        3.77427        0.60197
H          5.34720        1.14441        2.82756
H          5.24205       -0.10809        1.54964
H          6.28071        1.32989        1.30787
