22
TRANS-3-METHYLCYCLOHEXANOL.gamout	Energy:    -350.1393266
C          2.49791        2.60502       -0.10966
C          0.96113        2.63348       -0.08845
C          3.03788        1.17146        0.05142
C          0.40035        1.97752        1.17744
C          0.94854        0.54610        1.33720
C          3.13648        0.98933        2.61467
C          2.49499        0.46180        1.31696
O         -1.02295        1.98699        1.06710
H          2.87192        3.04619       -1.05855
H          2.89496        3.25466        0.70313
H          0.57206        3.67129       -0.16396
H          0.55461        2.07592       -0.96326
H          4.15008        1.17616        0.06856
H          2.74256        0.57794       -0.84368
H          0.72116        2.59129        2.05959
H          0.55569        0.09770        2.27959
H          0.52743       -0.05509        0.49991
H          4.23815        0.84845        2.60170
H          2.94653        2.07102        2.77826
H          2.74338        0.45106        3.50328
H          2.76449       -0.61583        1.23847
H         -1.37665        1.55125        1.86515
