24
TRANS-1,3-DIMETHYLCYCLOHEXANE.gamout	Energy:    -314.2616416
C          0.99315        3.34713        2.98562
C          1.51737        1.91308        3.18804
C          2.96198        1.88140        3.74486
C          1.42291        1.06051        1.89831
C          4.04633        2.25859        2.71160
C          2.49187        1.43165        0.85493
C          5.45479        2.17645        3.31706
C          3.90651        1.37326        1.45560
H          1.02749        3.92486        3.93387
H         -0.06144        3.34156        2.63714
H          1.58290        3.91454        2.23550
H          0.86140        1.43496        3.95099
H          3.18389        0.85363        4.11696
H          3.03450        2.55163        4.63085
H          0.40442        1.15070        1.46020
H          1.54957       -0.01264        2.17009
H          3.87162        3.31502        2.39661
H          2.42084        0.75123       -0.02140
H          2.29944        2.45579        0.46184
H          5.68667        1.13931        3.64519
H          5.55643        2.83649        4.20450
H          6.23257        2.47525        2.58266
H          4.13953        0.31966        1.74236
H          4.66593        1.66151        0.69544
