24
TRANS-1-METHYL-2-ETHYLCYCLOPENTANE.gamout	Energy:    -314.2511156
C          5.57009        2.96282        1.65302
C          4.44295        2.19046        0.95427
C          3.17659        1.99612        1.80254
C          2.38327        3.27592        2.21223
C          2.09753        1.11215        1.13411
C          2.14175        4.26170        1.05481
C          1.06053        2.67536        2.75974
C          0.78714        1.38730        1.92231
H          5.89684        2.45215        2.58462
H          5.25549        3.98975        1.93567
H          6.46172        3.05937        0.99871
H          4.17160        2.69956        0.00169
H          4.81958        1.18671        0.65327
H          3.48235        1.49873        2.75474
H          2.92105        3.82021        3.01936
H          2.38093        0.03881        1.12407
H          1.98416        1.41342        0.06920
H          1.50368        5.10660        1.38993
H          1.62577        3.78202        0.19586
H          3.08834        4.69758        0.67247
H          0.22150        3.40141        2.71955
H          1.19455        2.40807        3.82953
H          0.53673        0.53654        2.58974
H         -0.07921        1.50819        1.23980
