14
TRI-(METHYL)-AMMONIUM+1.gamout	Energy:    -174.7086618
N         -2.86459        0.37733       -0.06066
C         -1.35898        0.36590       -0.12752
H         -3.21007        0.20893       -1.02440
C         -3.39745        1.72013        0.36879
C         -3.39807       -0.73981        0.79873
H         -3.02140        2.49639       -0.32266
H         -3.04381        1.92674        1.39623
H         -4.50256        1.69516        0.34843
H         -3.01995       -1.70486        0.41425
H         -4.50310       -0.72455        0.76809
H         -3.04700       -0.58317        1.83586
H         -1.02056        1.16656       -0.81063
H         -1.01989       -0.61883       -0.49846
H         -0.95999        0.54338        0.88874
