31
TRI-N-PROPYLAMINE.gamout	Energy:    -410.0332854
C          0.38272       -0.09968       -0.28149
C          1.58586        0.82089       -0.04196
C          1.17426        2.28004        0.20294
N          2.30018        3.19209        0.38510
C          1.97245        4.59564        0.14529
C          3.04433        2.96244        1.62822
C          3.19641        5.48249       -0.12506
C          2.82168        6.94009       -0.42239
C          4.47776        2.45195        1.41516
C          5.22986        2.23254        2.73224
H          0.70041       -1.14763       -0.45730
H         -0.30670       -0.09972        0.58974
H         -0.20374        0.22599       -1.16702
H          2.27729        0.79549       -0.91256
H          2.17101        0.44288        0.82527
H          0.45878        2.31775        1.07341
H          0.59320        2.63075       -0.67783
H          1.30351        4.63944       -0.74130
H          1.38132        5.04159        0.99609
H          2.49014        2.23821        2.27350
H          3.07893        3.90382        2.22805
H          3.87910        5.45282        0.75268
H          3.76931        5.04215       -0.97066
H          3.72265        7.56257       -0.59732
H          2.17900        7.01949       -1.32505
H          2.26159        7.39399        0.42324
H          5.02247        3.18001        0.77504
H          4.43928        1.50971        0.82611
H          6.26376        1.86740        2.56212
H          4.71393        1.48698        3.37509
H          5.30083        3.17519        3.31645
