59
TRI-(HEXYL)-AMMONIUM+1.gamout	Energy:    -763.9732564
N         -2.73136        0.33600       -0.46680
C         -1.38762       -0.38094       -0.41332
H         -3.03050        0.32585       -1.46179
C         -2.62169        1.80042       -0.05670
C         -3.80909       -0.40312        0.31924
H         -1.62250        2.14900       -0.38395
H         -2.63620        1.80972        1.05268
C         -3.72137        2.67698       -0.65431
C         -4.35898       -1.62624       -0.41438
H         -4.61808        0.32804        0.51396
H         -3.34956       -0.66837        1.29347
C         -0.48679       -0.07527       -1.60924
H         -1.60751       -1.46578       -0.36544
H         -0.91831       -0.09063        0.54946
C         -3.64910        4.12312       -0.13099
H         -4.72543        2.25803       -0.41972
H         -3.63090        2.67833       -1.76468
C          0.85269       -0.83000       -1.50811
H         -3.74576        4.11432        0.97836
C         -4.72818        5.03838       -0.73132
H         -2.64174        4.54690       -0.34513
H         -5.73403        4.60069       -0.53278
H         -4.62110        5.05829       -1.84060
C         -4.68255        6.47503       -0.18694
H         -4.79046        6.44806        0.92114
C         -5.75903        7.38586       -0.78770
H         -3.67444        6.90711       -0.37976
H         -6.77957        6.99587       -0.58706
H         -5.64726        7.47440       -1.88941
H         -5.70419        8.40935       -0.36560
H         -4.79834       -1.30414       -1.38686
C         -5.43238       -2.35823        0.41186
H         -3.53995       -2.33895       -0.65723
H         -6.25447       -1.65069        0.66394
H         -4.99377       -2.67650        1.38485
C         -6.01334       -3.58474       -0.31087
H         -6.45787       -3.26316       -1.28076
C         -7.07005       -4.33799        0.51211
H         -5.18489       -4.28188       -0.57441
H         -7.89599       -3.63923        0.77545
H         -6.62082       -4.65229        1.48143
C         -7.64170       -5.56347       -0.21075
H         -8.14759       -5.27935       -1.15761
H         -8.38637       -6.09178        0.41803
H         -6.84343       -6.29279       -0.46476
C          1.77693       -0.60415       -2.71529
H          1.24806       -0.91076       -3.64699
C          3.10734       -1.36761       -2.60944
H          1.98172        0.48553       -2.82778
H          2.89297       -2.45319       -2.48472
H          3.63293       -1.05622       -1.67841
C          4.02733       -1.15970       -3.81780
H          3.54157       -1.49146       -4.75988
H          4.97022       -1.73237       -3.71015
H          4.30009       -0.09040       -3.94281
H          0.65211       -1.91994       -1.39685
H          1.37708       -0.52065       -0.57563
H         -0.28930        1.01705       -1.68720
H         -1.00753       -0.37285       -2.54896
