40
TRI-N-BUTYLAMINE.gamout	Energy:    -527.8830659
C         48.76854       52.25868        0.02138
N         47.86183       53.11874        0.78724
C         47.59418       54.39942        0.12881
C         46.64119       52.41572        1.18927
C         49.63698       51.33751        0.89149
C         48.72918       55.42509        0.26995
C         45.95971       52.98455        2.44261
C         50.55558       50.42372        0.06783
C         48.38960       56.78214       -0.36383
C         44.69850       52.20305        2.83513
C         51.45042       49.52084        0.92537
C         49.50404       57.82574       -0.22314
C         43.99146       52.74616        4.08227
H         49.43925       52.90861       -0.57980
H         48.20221       51.64008       -0.72943
H         47.34318       54.26125       -0.96043
H         46.68199       54.83190        0.59097
H         46.91487       51.35890        1.39582
H         45.89476       52.37237        0.34599
H         48.98789       50.70778        1.54235
H         50.23715       51.96925        1.58337
H         48.95248       55.55102        1.35285
H         49.66522       55.03329       -0.19066
H         46.69589       52.98508        3.27733
H         45.68590       54.05239        2.27934
H         51.19001       51.04726       -0.60294
H         49.93224       49.79618       -0.60896
H         48.15226       56.63344       -1.44207
H         47.45440       57.17688        0.09560
H         44.96280       51.13264        2.99721
H         43.98742       52.20545        1.97730
H         52.09122       48.86812        0.29833
H         50.84766       48.86101        1.58564
H         52.12121       50.11813        1.57939
H         49.21630       58.79091       -0.68794
H         49.73994       58.02774        0.84391
H         50.44440       57.48937       -0.71028
H         43.67419       53.80237        3.94508
H         43.08377       52.15438        4.31834
H         44.65240       52.71378        4.97497
