44
TRIBUTYL_PHOSPHATE.gamout	Energy:   -1115.2140972
P          4.78153       -4.39315        1.81627
O          3.80875       -3.30486        1.49062
O          5.71435       -4.96890        0.61259
O          5.92489       -4.00429        2.93019
O          4.06972       -5.75055        2.34303
C          5.62832       -2.99009        3.92193
C          6.36455       -4.01893       -0.26442
C          4.82205       -6.93162        2.70411
C          6.71846       -1.92433        3.91483
C          6.52707       -0.88586        5.02976
C          3.82998       -8.00228        3.13385
C          4.50955       -9.31867        3.53502
C          6.00435       -4.32572       -1.71169
C          6.75915       -3.43363       -2.70679
C          6.41503       -3.72779       -4.17175
C          7.60354        0.20619        5.04409
C          3.51751      -10.40503        3.96856
H          5.57665       -3.49544        4.91222
H          4.63509       -2.54395        3.69945
H          7.46133       -4.10090       -0.09362
H          6.05138       -2.98617        0.00387
H          5.53123       -6.68058        3.52491
H          5.42162       -7.26517        1.82816
H          6.71930       -1.42422        2.92071
H          7.70807       -2.42307        4.01773
H          6.51308       -1.40719        6.01393
H          5.52328       -0.41595        4.92313
H          3.11843       -8.17630        2.29683
H          3.22392       -7.60551        3.97830
H          5.23399       -9.12632        4.35879
H          5.11914       -9.69181        2.68093
H          4.90579       -4.20266       -1.83661
H          6.22658       -5.39715       -1.91419
H          7.85489       -3.56146       -2.55016
H          6.54598       -2.36412       -2.48159
H          6.98490       -3.07006       -4.85895
H          5.33509       -3.56644       -4.37660
H          6.65081       -4.77944       -4.44089
H          7.42736        0.93182        5.86363
H          8.61856       -0.22207        5.18860
H          7.61665        0.77719        4.09117
H          2.80065      -10.64837        3.15550
H          2.92259      -10.08351        4.85001
H          4.04128      -11.34280        4.24366
