24
TRIETHYLENE_GLYCOL.gamout	Energy:    -537.5020622
C         -3.04029        1.77028        0.55362
C         -3.61733        0.39928        0.89170
O         -2.91262       -0.57331        0.14578
C         -3.35818       -1.89408        0.37669
C         -2.51924       -2.83284       -0.48418
O         -2.96478       -4.15361       -0.25317
C         -2.26050       -5.12622       -0.99946
C         -2.83699       -6.49725       -0.66057
O         -2.11802       -7.45827       -1.41705
O         -3.75975        2.73124        1.30971
H         -1.94743        1.76170        0.79179
H         -3.13417        1.92945       -0.54957
H         -3.52487        0.21782        1.99261
H         -4.71094        0.38670        0.65252
H         -3.25224       -2.18074        1.45372
H         -4.44008       -2.01415        0.11519
H         -2.62524       -2.54623       -1.56121
H         -1.43732       -2.71277       -0.22276
H         -2.35395       -4.94502       -2.10033
H         -1.16669       -5.11337       -0.76123
H         -2.74211       -6.65612        0.44258
H         -3.93006       -6.48893       -0.89777
H         -2.48294       -8.33516       -1.20330
H         -3.39447        3.60812        1.09653
