28
TRIETHYLENE_TETRAMINE.gamout	Energy:    -458.1038971
N         -0.06091       -0.14856       -0.01611
C          1.21062        0.57711        0.01541
C          0.96596        2.09015        0.04274
N          2.21841        2.83631        0.04319
C          2.05066        4.28534        0.04254
C          3.40244        5.00493       -0.01156
N          3.23322        6.45446       -0.00744
C          4.48676        7.20153       -0.02937
C          4.24153        8.71490        0.01753
N          5.51325        9.44331       -0.00224
H          0.11141       -1.15638       -0.12787
H         -0.53907       -0.05086        0.89123
H          1.78469        0.33591       -0.90509
H          1.88472        0.30816        0.87498
H          0.29926        2.33869        0.91724
H          0.38215        2.36691       -0.86286
H          2.77155        2.56320        0.86834
H          1.45653        4.55990       -0.86071
H          1.46902        4.68148        0.91826
H          3.99832        4.72710        0.88996
H          3.98215        4.61217       -0.88941
H          2.67199        6.72518       -0.82802
H          5.07850        6.90284        0.86813
H          5.14173        6.97404       -0.91229
H          3.66382        9.00909       -0.88904
H          3.57313        8.93027        0.89085
H          5.33612       10.45497       -0.06169
H          5.99943        9.30616        0.89592
