22
TRIETHYLAMINE.gamout	Energy:    -292.1867612
N         -0.00380       -0.00281       -0.00960
C          1.44784       -0.20459        0.02049
C         -0.36601        1.40919       -0.16357
C         -0.67323       -0.62970        1.13363
C          1.89077       -1.61947       -0.36560
C         -0.17472        1.94788       -1.58492
C         -2.15296       -0.94512        0.89079
H          1.87743        0.07108        1.02460
H          1.90096        0.50791       -0.69972
H          0.18833        2.05707        0.57183
H         -1.43889        1.50973        0.10212
H         -0.56206       -0.00750        2.06545
H         -0.14648       -1.58278        1.34675
H          2.99842       -1.68389       -0.38444
H          1.50475       -1.88876       -1.37031
H          1.53301       -2.38916        0.35030
H         -0.52772        2.99788       -1.64997
H         -0.74769        1.33603       -2.31147
H          0.88870        1.94166       -1.90440
H         -2.58478       -1.46655        1.77025
H         -2.27113       -1.59647        0.00077
H         -2.76114       -0.03121        0.72440
