9
TRIFLUOROPROPENE.gamout	Energy:    -415.3177579
C         39.98784       19.88282       -0.25578
C         38.50024       19.98620       -0.05978
F         38.17239       21.15746        0.54716
F         37.85104       19.96634       -1.25390
F         37.99949       18.97992        0.69497
C         40.73475       18.89661        0.26239
H         40.42030       20.69277       -0.86637
H         41.82232       18.85844        0.09472
H         40.28215       18.09740        0.87020
