6
TRIFLUOROACETONITRILE.gamout	Energy:    -430.1306511
C          1.14361        0.93587        1.20687
C          2.57566        1.01337        0.79822
F          2.80504        2.15980        0.13480
F          2.88397       -0.02096       -0.00300
F          3.36830        0.97349        1.88318
N          0.02102        0.87555        1.52761
