17
TRIFLUORO-ISOPROPYL_ACETATE.gamout	Energy:    -644.2558336
C          0.02146       17.15193       -0.07731
C          1.42143       17.69748        0.17225
O          1.28536       19.16578        0.16919
C          2.04429       17.25512        1.49453
C          2.36240       19.88256       -0.17446
C          2.00048       21.39762       -0.13238
O          3.45691       19.46728       -0.48839
F          3.09053       22.14030       -0.37208
F          1.06891       21.68433       -1.06992
F          1.50317       21.73946        1.07655
H         -0.38515       17.53179       -1.03545
H          0.04827       16.04450       -0.12550
H         -0.66993       17.44839        0.73797
H          2.10326       17.44008       -0.66610
H          3.05906       17.68151        1.61567
H          2.13424       16.14973        1.51794
H          1.41471       17.57086        2.35176
