6
TRIFLUOROETHYLENE.gamout	Energy:    -375.9993652
C         32.01818       18.00902        0.00000
C         30.67363       17.99455       -0.00000
F         29.94546       19.10535        0.00000
F         29.92573       16.90172        0.00000
F         32.72716       16.86718       -0.00000
H         32.59693       18.94361        0.00000
