21
TRIFLUOROMETHYLCYCLOHEXANE.gamout	Energy:    -572.4930938
C         -3.98841        0.96576        1.20765
C         -5.11431        2.01203        1.27654
C         -5.40854        2.60832       -0.11099
C         -5.71966        1.51611       -1.14815
C         -4.58744        0.46821       -1.21601
C         -4.29542       -0.13242        0.17653
C         -4.88552       -0.62052       -2.24279
F         -5.07874       -0.10256       -3.48499
F         -6.00353       -1.32744       -1.92550
F         -3.86335       -1.51244       -2.33982
H         -3.81996        0.50775        2.20574
H         -3.03382        1.47079        0.93254
H         -6.03841        1.53020        1.67203
H         -4.85181        2.81737        1.99552
H         -6.25573        3.32488       -0.05317
H         -4.52636        3.19623       -0.45409
H         -6.66496        0.99596       -0.87492
H         -5.87999        1.96058       -2.15233
H         -3.66314        0.96703       -1.58872
H         -5.18501       -0.71442        0.50514
H         -3.45244       -0.85077        0.10554
