5
TRIFLUOROCHLOROMETHANE.gamout	Energy:    -797.4752523
Cl         2.47011        0.01909        0.03635
C          1.23261        0.62332        1.17582
F          1.37788        0.03343        2.36726
F          1.35731        1.94572        1.33111
F          0.00806        0.35696        0.70899
