101
TRIHEXYL-(TETRADECYL)-PHOSPHONIUM+1.gamout	Energy:   -1600.5317253
P          0.99708        0.34658        0.06224
C          0.38857        0.06703        1.76881
C          0.37202        1.95153       -0.57778
C          0.39613       -0.98013       -1.05771
C          2.83335        0.26571        0.01098
C          0.79804       -1.28227        2.39279
C          0.52569        3.19271        0.32386
C         -1.12903       -1.18856       -1.12160
C          3.62503        1.14498        0.99799
C          0.27494       -1.45242        3.83045
C          0.02111        4.46968       -0.37187
C         -1.51652       -2.28543       -2.13029
C          5.14391        0.93094        0.86141
C          0.72057       -2.77777        4.46862
C          0.16735        5.73161        0.49294
C         -3.03250       -2.50636       -2.24292
C          5.97030        1.78810        1.83212
C          0.24004       -2.97904        5.91428
C         -0.31983        7.01399       -0.20080
C         -3.41827       -3.59361       -3.25974
C          7.48767        1.58136        1.69061
C          0.72678       -4.30289        6.52388
C          0.28482       -4.54474        7.97530
C         -0.16607        8.26914        0.66567
C         -4.93185       -3.80355       -3.38386
C          8.31243        2.43874        2.65750
C          0.79409       -5.87906        8.54131
C          0.37483       -6.16507        9.99159
C          0.89048       -7.51376       10.51634
C          0.47745       -7.83617       11.96107
C          0.99361       -9.19480       12.45925
C          0.57911       -9.53967       13.89913
C          1.10130      -10.90018       14.37725
H         -0.71822        0.17447        1.73020
H          0.76246        0.91690        2.38079
H         -0.70089        1.78223       -0.81975
H          0.88671        2.10169       -1.55405
H          0.90930       -1.91508       -0.74298
H          0.80426       -0.72976       -2.06264
H          3.11515        0.49234       -1.04178
H          3.08258       -0.80793        0.16580
H          1.90689       -1.37315        2.40029
H          0.42346       -2.12032        1.76413
H          1.59041        3.32871        0.61183
H         -0.03574        3.04400        1.27211
H         -1.63462       -0.23971       -1.40696
H         -1.51837       -1.45802       -0.11512
H          3.31438        0.91765        2.04141
H          3.39201        2.21800        0.82930
H         -0.83670       -1.38733        3.83012
H          0.63023       -0.59981        4.45308
H         -1.04687        4.33440       -0.65869
H          0.57665        4.60728       -1.32755
H         -1.02085       -3.23998       -1.84199
H         -1.10485       -2.02191       -3.13108
H          5.45165        1.15395       -0.18549
H          5.37778       -0.14573        1.02449
H          1.83330       -2.83671        4.44379
H          0.36209       -3.62620        3.84108
H          1.23557        5.85525        0.78559
H         -0.39245        5.59425        1.44650
H         -3.52370       -1.54685       -2.52525
H         -3.44426       -2.77276       -1.24207
H          5.66359        1.56137        2.87918
H          5.72949        2.86429        1.67121
H         -0.87288       -2.93902        5.94606
H          0.59137       -2.12814        6.54230
H         -1.38658        6.88739       -0.49241
H          0.23868        7.14639       -1.15474
H         -2.92912       -4.55131       -2.97128
H         -2.99372       -3.32791       -4.25444
H          7.78792        1.80460        0.64195
H          7.72454        0.50460        1.84975
H          1.83976       -4.33909        6.47151
H          0.37262       -5.14819        5.88928
H         -0.82767       -4.51516        8.03516
H          0.64332       -3.70659        8.61663
H         -0.74331        8.18156        1.60979
H         -0.52696        9.17365        0.13643
H          0.89504        8.44612        0.93957
H         -5.38132       -4.10713       -2.41435
H         -5.17155       -4.59358       -4.12491
H         -5.44472       -2.87442       -3.71140
H          8.12677        3.52302        2.49972
H          9.39916        2.26660        2.52219
H          8.06712        2.21075        3.71671
H          1.90647       -5.90404        8.47101
H          0.43770       -6.71004        7.88898
H         -0.73705       -6.13845       10.06727
H          0.74031       -5.34485       10.65207
H          2.00256       -7.53551       10.43959
H          0.53108       -8.32746        9.84407
H         -0.63442       -7.81161       12.04018
H          0.84315       -7.03021       12.63902
H          2.10603       -9.21589       12.38313
H          0.63399       -9.99720       11.77336
H         -0.53236       -9.51838       13.97333
H          0.93900       -8.73940       14.58555
H          0.72677      -11.72607       13.73490
H          0.78368      -11.12033       15.41780
H          2.21154      -10.94076       14.35290
