13
TRIMETHYLAMINE.gamout	Energy:    -174.3367900
C          1.05029        1.07331        2.21760
N          1.95569        1.56457        1.19305
C          3.35056        1.34793        1.53769
C          1.68547        2.94603        0.83317
H         -0.00284        1.18384        1.88278
H          1.23447       -0.00520        2.40734
H          1.14851        1.61137        3.20285
H          4.00499        1.66422        0.69800
H          3.68131        1.91416        2.45387
H          3.53714        0.26947        1.72617
H          2.34392        3.25802       -0.00482
H          0.63240        3.05674        0.49854
H          1.84883        3.67263        1.67903
