13
TRIMETHYL_ALUMINUM.gamout	Energy:    -362.0289523
C         -0.97791       -0.06482       -0.00217
Al         1.00048       -0.09114       -0.00070
C          1.98736       -0.06858        1.71406
C          1.99044       -0.06148       -1.71354
H         -1.41165       -0.55154       -0.90255
H         -1.36180        0.98217       -0.00029
H         -1.41287       -0.55520        0.89563
H          1.42423       -0.54835        2.54364
H          2.18142        0.98109        2.03589
H          2.98139       -0.56048        1.64278
H          1.42885       -0.53745       -2.54637
H          2.98420       -0.55394       -1.64242
H          2.18538        0.98951       -2.03050
