13
TRIMETHYLENE_DICYANIDE.gamout	Energy:    -303.3840888
C          1.27559       -0.74556        0.00000
C         -0.00000        0.12599        0.00000
C         -1.27559       -0.74557       -0.00000
C         -2.50975        0.04641       -0.00000
N         -3.48760        0.69202       -0.00000
C          2.50975        0.04642       -0.00000
N          3.48761        0.69201       -0.00000
H          1.29184       -1.41337        0.89012
H          1.29184       -1.41337       -0.89012
H         -0.00001        0.78814        0.89033
H         -0.00001        0.78815       -0.89032
H         -1.29185       -1.41337       -0.89012
H         -1.29185       -1.41338        0.89011
