10
TRIMETHYLENESULFIDE.gamout	Energy:    -515.9213337
C          0.66553        1.35427        0.80899
C          1.73992        2.44992        1.01292
C          2.96976        1.52590        0.83574
S          1.92166        0.00343        1.08991
H         -0.17542        1.34229        1.53132
H          0.25597        1.31137       -0.22241
H          1.68582        3.30697        0.30761
H          1.69822        2.85270        2.04540
H          3.40542        1.54651       -0.18562
H          3.78576        1.63962        1.57761
