12
TRIOXANE.gamout	Energy:    -343.3142367
C          3.03730        2.29690        2.74807
O          1.77251        2.38963        3.37305
O          2.92155        2.11463        1.35066
C          1.01721        1.23025        3.08221
C          2.14995        0.95888        1.08898
O          0.87241        1.03112        1.68988
H          3.61746        1.44085        3.19475
H          3.56913        3.25242        2.91885
H          0.00593        1.37183        3.50895
H          1.51442        0.33044        3.54268
H          2.69541        0.04845        1.46691
H          2.00369        0.89290       -0.00608
