76
TRIOCTYLAMINE.gamout	Energy:    -999.2764456
N          0.35118        0.31055        0.59243
C          1.78973        0.03679        0.61802
C          0.05664        1.73472        0.40609
C         -0.36830       -0.26426        1.73265
C          2.17025       -1.40463        0.24070
C          0.16157        2.22616       -1.04758
C         -1.84079       -0.58297        1.42424
C          3.69055       -1.63757        0.21947
C         -0.21013        3.71147       -1.19651
C         -2.61077       -1.17425        2.61574
C          4.11101       -3.07867       -0.12558
C         -0.16961        4.24286       -2.64194
C         -4.08259       -1.50167        2.30164
C          5.63560       -3.30086       -0.15554
C         -0.55406        5.72917       -2.77598
C         -4.88465       -2.07320        3.48654
C          6.06877       -4.74097       -0.48614
C         -0.53644        6.26761       -4.21873
C         -6.35101       -2.40266        3.15359
C          7.59246       -4.94567       -0.52262
C         -0.92664        7.75023       -4.34066
C         -7.15889       -2.96368        4.33511
C          8.01846       -6.38283       -0.85017
C         -0.90890        8.27781       -5.78141
C         -8.61619       -3.28921        3.98506
H          2.23885        0.29193        1.62007
H          2.27157        0.72463       -0.10889
H          0.70419        2.37559        1.06797
H         -0.98464        1.91113        0.75092
H         -0.30562        0.40124        2.63867
H          0.13957       -1.20966        2.01828
H          1.72769       -1.63717       -0.75378
H          1.70403       -2.12176        0.95473
H         -0.50551        1.59524       -1.67640
H          1.19161        2.06506       -1.44194
H         -1.86684       -1.28074        0.55774
H         -2.36168        0.34036        1.08034
H          4.11420       -1.36185        1.21363
H          4.15913       -0.93429       -0.50824
H          0.46870        4.32579       -0.56011
H         -1.23198        3.87344       -0.77998
H         -2.56610       -0.46179        3.47228
H         -2.09564       -2.09782        2.96959
H          3.65153       -3.78048        0.60912
H          3.68072       -3.36162       -1.11485
H          0.84935        4.08628       -3.06632
H         -0.85226        3.62945       -3.27529
H         -4.58796       -0.58086        1.92717
H         -4.11911       -2.22417        1.45290
H          6.06706       -3.00678        0.83016
H          6.08976       -2.60285       -0.89736
H          0.13282        6.34427       -2.14854
H         -1.56945        5.88276       -2.34170
H         -4.85556       -1.34985        4.33499
H         -4.37944       -2.99314        3.86346
H          5.62386       -5.44183        0.25866
H          5.63718       -5.04037       -1.47022
H          0.47812        6.11841       -4.65654
H         -1.22441        5.65561       -4.84810
H         -6.85624       -1.48614        2.76817
H         -6.37981       -3.13330        2.31124
H          8.02663       -4.64520        0.45880
H          8.03726       -4.24891       -1.26978
H         -0.23893        8.36423       -3.71475
H         -1.94018        7.89927       -3.90287
H         -7.13606       -2.23382        5.17699
H         -6.65721       -3.88009        4.72247
H          9.12298       -6.48343       -0.86919
H          7.63230       -7.10556       -0.09931
H          7.63808       -6.70443       -1.84365
H         -1.19419        9.34881       -5.82526
H          0.10042        8.18313       -6.23656
H         -1.61688        7.71832       -6.43026
H         -9.16599       -3.68412        4.86352
H         -9.16192       -2.38860        3.62942
H         -8.68345       -4.05329        3.18053
