30
TRIPHENYLENE.gamout	Energy:    -692.6782033
C          4.23685        1.75860        4.23057
C          3.26461        2.12931        3.19039
C          3.67212        2.94520        2.08471
C          1.91239        1.69692        3.24910
C          5.59111        2.21587        4.13868
C          3.87043        0.94933        5.34043
C          5.06402        3.41372        1.98980
C          2.70360        3.28097        1.10112
C          0.98351        2.04128        2.27050
C          6.00968        3.05452        3.00387
C          6.50172        1.83869        5.16200
C          4.78437        0.59462        6.32919
C          5.50697        4.22306        0.90960
C          1.38392        2.84306        1.18296
C          7.34443        3.52573        2.88082
C          6.11644        1.04487        6.23914
C          6.82208        4.67149        0.81307
C          7.75205        4.31872        1.81098
H          1.57980        1.07186        4.08758
H          2.83846        0.58678        5.43207
H          2.98952        3.90488        0.24442
H         -0.05479        1.68686        2.35133
H          7.54480        2.17751        5.11271
H          4.46397       -0.03317        7.17318
H          4.80173        4.51242        0.11931
H          0.66392        3.12538        0.40076
H          8.08641        3.26260        3.64605
H          6.85157        0.77418        7.01103
H          7.12477        5.29661       -0.03941
H          8.79447        4.66347        1.75156
