35
TRIPHENYLMETHYL_CHLORIDE.gamout	Energy:   -1192.6146662
C          7.01180        2.59067       -1.30684
C          6.96825        1.37074       -1.99509
C          6.13015        2.80850       -0.23357
C          6.05558        0.37103       -1.61514
C          5.17049        0.57704       -0.53867
C          5.22064        1.81366        0.14273
C          4.14850       -0.47960       -0.08750
Cl         2.47837        0.37210       -0.26866
C          4.14885       -1.72895       -0.98259
C          4.26918       -0.86133        1.39849
C          5.00870       -2.80332       -0.67210
C          5.08745       -3.92608       -1.50819
C          3.37380       -1.80988       -2.15562
C          3.44780       -2.93613       -2.98911
C          4.30535       -3.99991       -2.67056
C          3.18716       -1.47387        2.06739
C          3.30404       -1.88110        3.40205
C          5.47435       -0.67924        2.10206
C          5.59178       -1.08890        3.44166
C          4.50992       -1.68979        4.09885
H          7.72549        3.37304       -1.60635
H          7.64724        1.18847       -2.84101
H          6.14960        3.76310        0.31345
H          6.03457       -0.57937       -2.16569
H          4.52050        1.99497        0.97076
H          5.62451       -2.76035        0.23719
H          5.76325       -4.75291       -1.24357
H          2.69439       -0.98325       -2.40306
H          2.82340       -2.98171       -3.89404
H          4.36006       -4.88470       -3.32219
H          2.24000       -1.61640        1.52894
H          2.44375       -2.35043        3.90252
H          6.33249       -0.20317        1.60867
H          6.54285       -0.92665        3.96979
H          4.60159       -2.00547        5.14909
