36
TRIPHENYLETHYLENE.gamout	Energy:    -771.1910385
C          4.64497        5.63483        2.27412
C          5.91646        5.14862        2.45559
C          6.25523        3.69214        2.42964
C          7.05128        6.10038        2.63666
C          3.35214        4.93618        2.19254
C          5.91819        2.88719        1.31765
C          6.95880        3.09506        3.50072
C          8.32704        5.82101        2.08896
C          6.89292        7.31496        3.34648
C          2.28654        5.55575        1.49204
C          3.08633        3.70085        2.83306
C          6.25636        1.52735        1.28649
C          7.28721        1.73182        3.47363
C          9.38589        6.72853        2.21999
C          7.95377        8.22157        3.47887
C          1.02405        4.95549        1.40202
C          1.82200        3.10639        2.74991
C          6.93702        0.94267        2.36627
C          9.20685        7.93631        2.91343
C          0.78469        3.72267        2.02922
H          4.56382        6.72956        2.16312
H          5.38567        3.34101        0.46886
H          7.24368        3.70988        4.36819
H          8.48081        4.88100        1.53936
H          5.92636        7.53495        3.82320
H          2.46143        6.52734        1.00344
H          3.87848        3.21231        3.41572
H          5.98811        0.91971        0.40907
H          7.82408        1.28337        4.32301
H         10.36232        6.48949        1.77311
H          7.80406        9.15465        4.04252
H          0.21953        5.45661        0.84342
H          1.64299        2.14935        3.26258
H          7.20061       -0.12571        2.34184
H         10.04110        8.64562        3.02185
H         -0.20698        3.25053        1.96609
