29
TRIS-(2-HYDROXYETHYL)-METHYLAMMONIUM+1.gamout	Energy:    -557.3115634
N         -1.06635        2.07374       -0.41240
C         -0.82029        3.14306       -1.45809
H          0.24858        3.13840       -1.72929
H         -1.07160        4.12917       -1.03126
H         -1.46622        2.93045       -2.32927
C         -2.55257        2.06560       -0.04198
C         -0.23775        2.33960        0.84907
C         -0.71176        0.72383       -1.05674
C         -3.14895        3.37551        0.49142
H         -2.69222        1.25945        0.70122
H         -3.10247        1.76446       -0.95542
C          1.27958        2.23181        0.73073
H         -0.60815        1.63135        1.61474
H         -0.49907        3.36466        1.17060
C         -0.66157       -0.50398       -0.15120
H          0.27607        0.85840       -1.53901
H         -1.46698        0.57373       -1.85304
O         -4.45830        2.99728        0.85587
H         -3.14210        4.16968       -0.29384
H         -2.56437        3.76521        1.36293
H         -4.97228        3.80044        1.06264
O          1.76737        3.24081       -0.13024
H          1.58885        1.20979        0.40432
H          1.65248        2.34737        1.77784
H          2.74210        3.25579       -0.08088
O         -1.92496       -0.74618        0.42966
H          0.14499       -0.39378        0.61349
H         -0.33504       -1.33210       -0.82690
H         -1.91050       -1.61247        0.87912
