16
VALERALDEHYDE.gamout	Energy:    -271.5649251
C          1.84527        1.09427        4.50238
C          1.94376        1.73926        3.11828
C          1.04295        1.07867        2.06390
C          2.72075        1.72716        5.56519
C          1.14480        1.73441        0.68121
O          3.45498        2.67989        5.38569
H          0.79976        1.10980        4.89652
H          2.10457        0.00767        4.47636
H          1.69462        2.82001        3.20529
H          3.00440        1.71085        2.78398
H          1.30158       -0.00219        1.98334
H         -0.01467        1.10743        2.41345
H          2.64501        1.23717        6.58705
H          0.84663        2.80413        0.71625
H          2.18451        1.69513        0.29145
H          0.49137        1.22993       -0.06048
