19
VALINE.gamout	Energy:    -402.0740808
C          0.31532        1.87932        0.19001
C         -0.06073        1.30367       -1.18451
C          1.70218        1.34712        0.68078
C          0.20439        3.41050        0.23764
C          2.80920        1.65792       -0.32987
O          3.51319        0.55748       -0.71029
O          3.07631        2.77200       -0.74664
N          1.60276       -0.08519        0.95520
H          0.09580        0.20627       -1.19841
H          0.55640        1.75892       -1.98910
H         -1.12399        1.51186       -1.42426
H          0.41542        3.80370        1.25539
H         -0.82024        3.73249       -0.04234
H          0.92385        3.88456       -0.45916
H          4.19621        0.89391       -1.33350
H          1.03392       -0.23240        1.79883
H          2.52929       -0.48674        1.14359
H          1.98215        1.97169        1.57188
H         -0.40560        1.46770        0.93580
