19
VANILLIN.gamout	Energy:    -534.9259399
C          0.74826        2.00523        1.03322
O          1.85608        1.78392        0.15343
C          3.06386        2.32867        0.49598
C          4.17726        1.48179        0.60153
C          3.25631        3.73167        0.67638
C          5.46682        1.98400        0.88321
O          2.17619        4.54842        0.52907
C          4.54492        4.23090        0.97530
C          6.62158        1.06048        0.98500
C          5.64228        3.37239        1.07754
O          7.76922        1.39725        1.24000
H          0.97386        1.63462        2.05899
H          0.46209        3.07597        1.08535
H         -0.09476        1.41987        0.61846
H          4.01642        0.40203        0.44757
H          2.46195        5.47156        0.67302
H          4.67282        5.31931        1.11231
H          6.35979       -0.02801        0.80281
H          6.65149        3.75043        1.30205
