10
VINYLACETONITRILE.gamout	Energy:    -209.9811520
C         30.02062       -0.00905        0.25937
C         29.14342        1.22798        0.33068
C         31.37782        0.27700       -0.23064
N         32.45722        0.52353       -0.61433
C         27.96378        1.34992       -0.29977
H         30.12064       -0.46976        1.26925
H         29.55983       -0.77715       -0.39854
H         29.52792        2.05427        0.95464
H         27.35473        2.26270       -0.20236
H         27.55886        0.54452       -0.93643
