22
VINYLCYCLOHEXANE.gamout	Energy:    -313.0308181
C         -0.63021        0.00002       -0.17209
C          0.14856       -1.26983        0.25687
C          0.14869        1.26984        0.25670
C          1.59523       -1.26883       -0.26810
C          1.59535        1.26863       -0.26827
C          2.35267       -0.00011        0.15943
C         -2.03474        0.00011        0.37969
C         -3.16791        0.00007       -0.34594
H         -0.69624       -0.00005       -1.28617
H         -0.39398       -2.17569       -0.08998
H          0.16082       -1.32331        1.37096
H          0.16094        1.32348        1.37078
H         -0.39377        2.17571       -0.09028
H          1.58024       -1.32798       -1.38107
H          2.12926       -2.17923        0.08140
H          2.12947        2.17903        0.08110
H          1.58036        1.32762       -1.38125
H          2.47014       -0.00004        1.26817
H          3.38198       -0.00018       -0.26067
H         -2.10591        0.00021        1.48590
H         -4.16209        0.00013        0.12985
H         -3.14574       -0.00002       -1.45004
