6
VINYL_CHLORIDE.gamout	Energy:    -538.0266829
C          1.81547        0.90125        0.74960
C          0.75180        0.81679        1.56227
Cl         0.39267        1.98051        2.81263
H          2.54232        1.72456        0.82139
H          1.97234        0.12525       -0.01583
H          0.00980        0.00399        1.51179
