6
1,1,2,2-TETRACHLOROETHENE.gamout	Energy:   -1916.1081968
Cl        -2.66861       -3.81430       -1.83470
C         -0.93911       -3.83039       -1.83470
Cl        -0.19061       -2.27117       -1.83470
C         -0.22579       -4.97601       -1.83470
Cl         1.50372       -4.99210       -1.83470
Cl        -0.97430       -6.53523       -1.83470
