8
1,1,1-TRICHLOROTRIFLUOROETHANE.gamout	Energy:   -1755.3410903
Cl        -1.31957        1.04442       -1.33138
Cl        -1.32126        0.62955        1.57023
Cl        -1.32044       -1.67522       -0.23937
F          1.28352        1.23859        0.17651
F          1.28448       -0.77086        0.98406
F          1.28085       -0.46652       -1.16033
C         -0.74983        0.00012        0.00038
C          0.81696        0.00064        0.00032
