8
1,1,2,2-TETRAFLUOROETHANE.gamout	Energy:    -476.2594477
C         -1.16687        2.10012       -0.09705
C          0.28477        1.60512       -0.13406
F         -1.43730        2.67802        1.09463
F         -1.99154        1.02965       -0.25908
H         -1.36151        2.82548       -0.90209
F          1.11197        2.68521       -0.14081
F          0.55480        0.85850        0.96006
H          0.47422        1.00196       -1.03560
