24
1,1,2-TRIMETHYLCYCLOPENTANE.gamout	Energy:    -314.0580397
C          0.69816        2.93035        1.29341
C          1.89541        2.09666        1.76814
C          1.42303        0.64625        1.99782
C          2.57966        2.63166        3.06955
C          3.06210        2.11780        0.74639
C          2.69368        4.16042        3.14572
C          3.97466        1.95799        3.04540
C          4.34400        1.77718        1.54554
H          0.98331        3.96165        1.04722
H         -0.09308        2.96854        2.05782
H          0.25906        2.48610        0.38779
H          2.23715       -0.01077        2.33258
H          1.01653        0.22029        1.06872
H          0.62973        0.60916        2.75953
H          2.00748        2.29459        3.94914
H          2.88076        1.42276       -0.08613
H          3.14447        3.12038        0.30096
H          3.23404        4.57682        2.28193
H          3.24836        4.45199        4.04913
H          1.70946        4.64587        3.19365
H          4.72118        2.55193        3.59060
H          3.93427        0.98192        3.54819
H          4.67799        0.74946        1.34616
H          5.17747        2.43096        1.25407
