11
1,1,1,2,3,3-HEXAFLUOROPROPANE.gamout	Energy:    -713.7991137
C         -1.54881        1.27304        0.01319
C         -0.19422        1.99612       -0.07733
F         -1.60942        0.59030        1.17700
H         -0.16485        2.73329        0.74032
F          2.13583        1.82632        0.16872
F         -1.74431        0.41437       -0.98778
F         -0.12679        2.65364       -1.27592
F         -2.54949        2.16326        0.00404
C          1.01216        1.06354        0.08320
F          1.13922        0.24769       -0.99091
H          0.93548        0.44618        0.99081
