27
1,1,2-TRIMETHYLCYCLOHEXANE.gamout	Energy:    -353.3219457
C          1.30182        1.45837        4.39002
C          1.88664        2.43927        3.35801
C          2.13188        1.81366        1.94083
C          3.16596        3.11744        3.90231
C          2.32305        2.94480        0.90688
C          0.91890        0.98229        1.48481
C          3.38421        0.90011        1.97645
C          4.38320        2.18205        3.91489
C          4.64174        1.58831        2.52453
H          0.29543        1.12386        4.10865
H          1.21922        1.95093        5.36953
H          1.92436        0.56271        4.52647
H          1.13174        3.23221        3.21894
H          3.40107        4.00476        3.29523
H          2.96777        3.49286        4.91817
H          1.40203        3.53940        0.81458
H          2.54983        2.52531       -0.08454
H          3.13486        3.63612        1.16307
H         -0.00963        1.57088        1.53760
H          0.78249        0.07740        2.09195
H          1.04744        0.65967        0.44102
H          3.57076        0.51059        0.96321
H          3.16416        0.02080        2.60325
H          5.27007        2.72453        4.27639
H          4.21361        1.36222        4.63280
H          5.47215        0.86689        2.56549
H          4.96297        2.38730        1.83708
