8
1,1,2-TRICHLOROTRIFLUOROETHANE.gamout	Energy:   -1755.3344593
C          0.46622        0.95065        0.00858
Cl        -0.43386        2.48625        0.03030
C          2.01490        1.21010       -0.00497
Cl         0.05163       -0.04077        1.43613
F          0.14634        0.26368       -1.09963
F          2.64959        0.03129        0.03239
Cl         2.51997        2.08122       -1.47749
F          2.36441        1.91521        1.07391
