11
1,1,1,2,2-PENTAFLUOROPROPANE.gamout	Energy:    -614.6770961
C         -1.35413       -0.63363        0.30397
C          0.09741       -0.55368       -0.10364
C          0.70749        0.87448       -0.03738
F          0.86646       -1.34415        0.69829
F          0.26244       -0.99375       -1.38358
F          0.03431        1.70447       -0.84934
F          1.98927        0.87091       -0.40368
F          0.62248        1.35290        1.21385
H         -1.67459       -1.67968        0.22515
H         -1.96572       -0.01114       -0.36026
H         -1.47120       -0.29174        1.33932
