24
1,1,3-TRIMETHYLCYCLOPENTANE.gamout	Energy:    -314.0620087
C          0.76754        2.84853        1.20822
C          1.71166        1.93294        2.00948
C          0.88905        1.08612        2.98984
C          2.78617        2.78208        2.74242
C          2.55555        1.03638        1.03220
C          3.95754        2.91660        1.75636
C          4.02399        1.50541        1.14252
C          5.26508        3.40504        2.37479
H          0.16470        3.48236        1.87638
H          0.07495        2.25486        0.59302
H          1.32899        3.50954        0.53240
H          0.14644        0.47345        2.45625
H          0.34368        1.72218        3.70411
H          1.53252        0.40677        3.56869
H          2.39499        3.75291        3.08212
H          3.13995        2.24557        3.63962
H          2.45803       -0.02826        1.28790
H          2.18451        1.13925        0.00186
H          3.66215        3.62375        0.96150
H          4.58104        0.84704        1.82957
H          4.55799        1.48511        0.18176
H          5.59816        2.71953        3.16999
H          6.06761        3.46296        1.62440
H          5.15221        4.40524        2.81927
