27
1,1,3-TRIMETHYLCYCLOHEXANE.gamout	Energy:    -353.3286812
C         -0.27808       -1.19327        0.88589
C         -1.31095       -0.73952       -0.15862
C         -1.13723        0.75926       -0.46136
C          0.29289        1.17919       -0.88304
C          1.30311        0.64942        0.16447
C          1.15572       -0.84731        0.46725
H         -0.50474       -0.69525        1.84607
H         -0.37612       -2.27508        1.06636
H         -1.11864       -1.30434       -1.08724
C         -2.74313       -1.05319        0.28645
H         -1.85175        1.06705       -1.24197
H         -1.41154        1.32543        0.44617
C          0.62992        0.63998       -2.28857
C          0.37117        2.71567       -0.92309
H          2.32888        0.87255       -0.16969
H          1.15535        1.21133        1.10257
H          1.86212       -1.13630        1.26044
H          1.43283       -1.44228       -0.41803
H          0.14033        3.15020        0.06105
H         -0.34318        3.13003       -1.65052
H          1.37774        3.05286       -1.21275
H         -0.07944        1.03180       -3.03250
H          0.59558       -0.45542       -2.34232
H          1.63924        0.95649       -2.59009
H         -2.99088       -0.51034        1.21227
H         -2.87390       -2.12756        0.48262
H         -3.47425       -0.75796       -0.48058
