11
1,1,2,2,3-PENTAFLUOROPROPANE.gamout	Energy:    -614.6504956
C          1.83732        0.36764       -1.90703
C          0.56857       -0.45852       -1.70912
C          0.12206       -1.19206       -2.99396
F         -0.43805        0.33867       -1.27607
F          0.77867       -1.41518       -0.75988
F         -1.11163       -1.70779       -2.81993
F          0.08017       -0.30209       -4.02517
H          0.81693       -2.00518       -3.25352
F          2.20976        0.92390       -0.70494
H          1.64065        1.16887       -2.63207
H          2.65158       -0.27984       -2.26624
