8
1,1,1,2-TETRACHLOROETHANE.gamout	Energy:   -1917.3355425
Cl        -0.25520       -1.46504       -0.97223
C         -0.38004        0.00000        0.05110
C          0.67669       -0.00000        1.15766
Cl         2.36299       -0.00000        0.54928
Cl        -0.25520        1.46504       -0.97223
Cl        -1.98406       -0.00000        0.88535
H          0.54343        0.89754        1.77217
H          0.54343       -0.89755        1.77216
