8
1,1,2-TRIBROMOETHANE.gamout	Energy:   -7799.1096197
C          0.49249        0.84950        0.06276
C          2.00564        0.86818        0.05630
Br         2.77051        1.71700        1.64378
Br         2.65259       -0.98849       -0.12192
Br        -0.25660        2.65998       -0.14714
H          0.12438        0.27565       -0.79472
H          0.08939        0.43906        0.99401
H          2.41162        1.40677       -0.80341
