8
1,1,1-TRIFLUOROETHANE.gamout	Energy:    -377.1475058
F         -0.44328        0.01770        1.25393
C          0.05867       -0.00000       -0.00034
C          1.56410        0.00010        0.00067
F         -0.44442       -1.09498       -0.61167
F         -0.44423        1.07719       -0.64257
H          1.92365       -0.88942        0.53178
H          1.92553       -0.01458       -1.03456
H          1.92292        0.90448        0.50655
