18
1,1,2-TRIMETHYLCYCLOPROPANE.gamout	Energy:    -235.5153629
C          2.15483        2.91877        2.50793
C          3.42338        3.05130        3.33433
C          0.88650        3.16833        3.30756
C          2.08164        1.89728        1.38808
C          2.17923        3.37224        1.06328
C          3.19745        0.92982        1.05169
H          3.44423        2.30811        4.14758
H          3.47466        4.04891        3.79839
H          4.33336        2.92104        2.73584
H         -0.01254        3.05961        2.68521
H          0.88247        4.18489        3.73221
H          0.80511        2.45775        4.14586
H          1.08577        1.46269        1.25603
H          3.12839        3.73937        0.66577
H          1.30265        3.88076        0.65686
H          3.17109        0.04590        1.70800
H          4.18947        1.39065        1.14796
H          3.10030        0.57636        0.01372
