27
1,1,2,2-TETRAMETHYLCYCLOPENTANE.gamout	Energy:    -353.3156665
C         -0.80473       -1.06241       -0.24333
C          0.75451       -1.11305        0.02632
C          1.19272        0.33733       -0.31051
C          0.01879        1.25874        0.10671
C         -1.19644        0.32407        0.33536
C          1.05985       -1.40167        1.51179
C          1.50775       -2.14595       -0.82428
C         -1.11429       -1.08510       -1.75484
C         -1.59485       -2.19792        0.42294
H          1.38426        0.42724       -1.38922
H          2.13426        0.60235        0.19109
H         -0.18889        2.00757       -0.67000
H          0.25785        1.82191        1.01926
H         -1.41172        0.23442        1.40976
H         -2.11557        0.70560       -0.13092
H          0.54151       -0.71299        2.19249
H          2.13854       -1.29590        1.69562
H          0.77886       -2.42571        1.79217
H          1.42439       -1.93893       -1.89876
H          1.13588       -3.16614       -0.64472
H          2.57828       -2.14101       -0.57167
H         -0.57351       -0.30552       -2.30793
H         -2.18871       -0.91806       -1.91770
H         -0.86319       -2.05423       -2.20710
H         -1.50231       -2.18139        1.51635
H         -1.26222       -3.18499        0.06812
H         -2.66477       -2.10852        0.18357
