8
1,1,2-TRICHLOROETHANE.gamout	Energy:   -1457.9357408
Cl        -1.06850       -1.48307       -0.20502
C         -0.59151        0.00000        0.69074
C          0.87891       -0.00000        1.06799
Cl         2.01099       -0.00000       -0.32547
Cl        -1.06850        1.48307       -0.20502
H         -1.18687       -0.00000        1.61162
H          1.09310        0.89643        1.66358
H          1.09309       -0.89643        1.66357
