8
1,1,1-TRICHLOROETHANE.gamout	Energy:   -1457.9336089
C          2.58570        2.57750        2.44951
C          1.67621        1.62279        1.70061
Cl         2.14063        1.55375       -0.04172
Cl        -0.03919        2.17016        1.81934
Cl         1.80181       -0.03679        2.39775
H          2.49890        3.58205        2.01627
H          2.29242        2.60902        3.50672
H          3.62454        2.23283        2.36860
