8
1,1,2,2-TETRABROMOETHANE.gamout	Energy:  -10372.2318055
Br        -0.41170        1.75339        0.94065
C         -0.51079        0.56479       -0.60127
C          0.51079       -0.56480       -0.60127
Br         2.32436        0.16578       -0.83187
Br         0.41171       -1.75339        0.94065
Br        -2.32437       -0.16578       -0.83188
H         -0.34574        1.19679       -1.47905
H          0.34575       -1.19680       -1.47905
