9
1,1,2-TRIFLUOROETHANOL.gamout	Energy:    -452.2775542
F         -0.48496       -1.08579        0.77165
C         -0.42660        0.00000       -0.05866
C          0.87255       -0.00000       -0.85700
F          1.95003       -0.00000       -0.00230
O         -1.46705        0.00000       -0.92801
F         -0.48497        1.08580        0.77166
H          0.90293       -0.90304       -1.48202
H          0.90294        0.90303       -1.48203
H         -2.30516       -0.00000       -0.44326
