11
1,1,1,2,3,3,3-HEPTAFLUOROPROPANE.gamout	Energy:    -812.9450138
F         -1.37618       -1.42178        0.41784
C         -1.30570       -0.13995        0.03224
C          0.00000        0.50734        0.54252
C          1.30570       -0.13995        0.03224
F          1.41149       -0.08604       -1.29702
F          2.34923        0.51360        0.56320
F          1.37618       -1.42178        0.41784
F          0.00000        1.82117        0.16107
F         -1.41149       -0.08604       -1.29702
F         -2.34923        0.51360        0.56320
H          0.00001        0.44324        1.64078
