8
1,1-DICHLORO-1-FLUOROETHANE.gamout	Energy:   -1097.6686920
C          1.58957        0.26502       -0.79673
C          0.69136       -0.89886       -0.44691
H          1.01036       -1.31486        0.51793
H         -0.34255       -0.53699       -0.37183
H          0.75393       -1.67351       -1.21935
F          1.51044        1.22222        0.16046
Cl         3.31847       -0.24202       -0.90086
Cl         1.10096        1.02999       -2.35672
