21
1,1-DIMETHYLCYCLOPENTANE.gamout	Energy:    -274.8012923
C          1.72355        0.55588       -0.98518
C          0.67761        0.00587       -0.00409
C         -0.28036        1.13864        0.51434
C         -1.70944        0.75530        0.07174
C         -1.65805       -0.77244       -0.07800
C         -0.27972       -1.00317       -0.71028
C          1.39065       -0.67548        1.17774
H          2.40966        1.25789       -0.48696
H          2.33073       -0.25583       -1.41513
H          1.24101        1.08931       -1.81760
H         -0.22839        1.20442        1.61137
H          0.01560        2.12526        0.13027
H         -2.48202        1.09817        0.77453
H         -1.93957        1.21147       -0.90479
H         -1.71172       -1.24989        0.91432
H         -2.48489       -1.17910       -0.67770
H         -0.33515       -0.76754       -1.78549
H          0.07500       -2.04066       -0.62547
H          1.98749        0.05104        1.74976
H          0.66956       -1.13208        1.87170
H          2.06931       -1.46684        0.82529
