10
1,1-DICHLOROACETONE.gamout	Energy:   -1111.7178559
Cl        -0.83745        1.33438       -0.09197
Cl        -1.03245       -1.57273       -0.71963
O          1.71357       -0.11148       -1.27001
C          1.33875       -0.32807       -0.14761
C         -0.17309       -0.30298        0.20959
C          2.25874       -0.64007        1.00608
H         -0.35148       -0.51888        1.26746
H          3.29923       -0.63766        0.66399
H          2.00521       -1.62384        1.43285
H          2.12364        0.10532        1.80625
