8
1,1-DIFLUORO-2-BROMOETHANE.gamout	Energy:   -2851.1242641
Br         0.02977       18.93829       -0.05625
C          1.67338       19.99659        0.03535
C          1.37316       21.48118        0.00588
F          0.74945       21.87454        1.15009
F          2.56747       22.15244       -0.05793
H          2.19175       19.73936        0.96602
H          2.28566       19.72650       -0.83131
H          0.75549       21.79646       -0.84733
