15
1,1-DIMETHYLCYCLOPROPANE.gamout	Energy:    -196.2559274
C          3.18383        2.26929        0.75793
C          2.06093        2.02029        1.74935
C          1.56747        3.26459        2.46663
C          1.05058        0.94561        1.41968
C          2.06914        0.71762        2.51547
H          3.49909        1.33789        0.26682
H          4.06527        2.69965        1.25994
H          2.86919        2.97399       -0.02849
H          0.75663        3.02914        3.17073
H          1.18406        4.00821        1.74976
H          2.38102        3.73921        3.03844
H          1.16878        0.39291        0.48559
H          0.01058        1.10584        1.71055
H          2.87878        0.01015        2.32532
H          1.72064        0.72313        3.55013
