8
1,1-DIFLUOROETHANE.gamout	Energy:    -277.9952977
C          2.31005        1.61891        0.81645
C          0.98432        0.91682        0.94138
F          1.03413       -0.02572        1.93810
F          0.00008        1.80825        1.28805
H          2.56266        2.09988        1.77072
H          2.25332        2.37981        0.02651
H          3.09008        0.89103        0.55545
H          0.65270        0.40574        0.02498
