8
1,1-DICHLOROTETRAFLUOROETHANE.gamout	Energy:   -1395.0750444
C         21.98323       19.99608        0.00537
C         23.54825       19.99077        0.01560
Cl        24.15260       18.31664       -0.02374
Cl        24.15160       20.86157        1.44738
F         23.95646       20.63285       -1.09345
F         21.53858       21.25489       -0.00868
F         21.53741       19.37956       -1.09182
F         21.49440       19.37683        1.07872
