28
1,1-DIPHENYLETHANE.gamout	Energy:    -541.2079936
C          4.30699        4.75204        1.15152
C          4.42542        3.21822        1.12404
C          3.16730        2.57469        1.70712
C          5.69932        2.67224        1.76825
C          2.96395        2.49803        3.09443
C          2.16325        2.08300        0.86010
C          6.06062        1.33441        1.52813
C          6.53330        3.44061        2.59244
C          1.78863        1.95480        3.61704
C          0.98538        1.53648        1.37922
C          7.21114        0.78292        2.09124
C          7.68769        2.89009        3.16345
C          0.79327        1.47082        2.76127
C          8.03284        1.56129        2.91496
H          4.19435        5.13250        2.17673
H          5.19129        5.22555        0.70101
H          3.42109        5.06928        0.58637
H          4.46465        2.92067        0.06361
H          3.73922        2.85758        3.77311
H          2.30497        2.12947       -0.22210
H          5.42284        0.71630        0.89231
H          6.29362        4.48389        2.79609
H          1.65092        1.90333        4.69887
H          0.21823        1.15744        0.70103
H          7.46983       -0.25769        1.88601
H          8.32013        3.50950        3.80235
H         -0.12296        1.04206        3.17062
H          8.93423        1.13298        3.35655
