6
1,1-DIFLUOROETHYLENE.gamout	Energy:    -276.7571636
C          0.66292        1.26416        0.05586
C          1.98080        1.13917        0.09074
F          2.63870       -0.00924        0.06279
F          2.84096        2.14309        0.15817
H          0.21426        2.25402        0.08326
H          0.03893        0.37569       -0.00013
