8
1,1-DICHLOROETHANE.gamout	Energy:    -998.5330759
C          2.14896        0.89049        0.83900
C          1.62375        2.05039        1.65396
Cl        -0.05955        1.73568        2.23339
Cl         2.70891        2.40946        3.05498
H          2.19137       -0.02296        1.44559
H          3.15884        1.12628        0.47513
H          1.48812        0.71721       -0.02219
H          1.56730        2.98153        1.08213
