6
1,1-DICHLOROETHYLENE.gamout	Energy:    -997.3005945
C          0.96450        0.54122        0.51494
C          1.19918        1.74058        1.04413
Cl         2.75094        2.53059        0.95156
Cl        -0.01908        2.65760        1.88991
H          1.75464        0.00144       -0.00605
H         -0.02114        0.08420        0.59630
