8
1,1-DICHLORO-2,2,2-TRIFLUOROETHANE.gamout	Energy:   -1295.9466520
C         41.01034       20.01498        0.02525
C         39.46790       20.01082        0.01741
F         38.94630       20.62548        1.07930
F         39.01962       20.62115       -1.09046
F         39.02077       18.74581       -0.00442
Cl        41.63121       21.68605       -0.03851
Cl        41.63039       19.12163        1.44008
H         41.35462       19.49472       -0.87504
