8
1,1-DIFLUORO-2,2-DICHLOROETHANE.gamout	Energy:   -1196.8002928
C         17.98110       20.02521       -0.01681
C         19.29537       20.81272       -0.01989
Cl        16.55950       21.10286       -0.00628
Cl        17.96366       18.89525       -1.40915
F         19.37040       21.66307       -1.06805
F         19.37501       21.54289        1.12578
H         17.93590       19.41764        0.89365
H         20.15598       20.12680       -0.05766
