17
1,2,3-TRICHLORO-2-METHYLBUTANE.gamout	Energy:   -1575.7246515
C          0.92192        0.02573       -0.10748
C          0.47718       -0.87596        1.05186
C          0.90887       -2.34854        0.88123
C          0.43297       -3.31440        1.95490
C          0.93786       -0.32393        2.40403
Cl         0.42453       -3.00462       -0.75801
Cl        -1.36641       -0.75497        1.00213
Cl         2.73375        0.12126       -0.25196
H          0.55276       -0.34797       -1.06516
H          0.57199        1.04887        0.05823
H          2.00620       -2.33873        0.84312
H         -0.66226       -3.34389        2.00526
H          0.82845       -3.02030        2.93696
H          0.80220       -4.32247        1.73212
H          0.69269        0.74296        2.47386
H          2.02635       -0.43613        2.50452
H          0.44591       -0.84121        3.23415
