22
1,2,3,4-TETRAHYDRONAPHTHALENE.gamout	Energy:    -387.7851285
C          3.49868        1.86733        1.42748
C          3.38794        3.27234        1.46888
C          4.61830        4.16127        1.52424
C          2.10922        3.85458        1.49017
C          2.32665        1.09229        1.41394
C          4.85356        1.18287        1.36438
C          5.90593        3.45121        1.09595
C          0.95349        3.07541        1.47462
C          1.06326        1.68111        1.43714
C          6.01596        2.08802        1.78465
H          4.73891        4.52749        2.55986
H          4.44935        5.05874        0.90887
H          2.02571        4.94385        1.51996
H          2.41312        0.00322        1.38425
H          5.02378        0.83892        0.32819
H          4.83144        0.27136        1.98144
H          6.77699        4.08125        1.33085
H          5.90462        3.30697        0.00218
H         -0.02850        3.55170        1.49065
H          0.16804        1.05665        1.42673
H          6.97421        1.60299        1.54524
H          5.99745        2.23180        2.87829
