26
1,2,3-TRIMETHYLINDENE.gamout	Energy:    -465.0914882
C         -0.60983        0.29109       -1.52083
C         -0.52055        0.67882       -0.03362
C          2.07753        0.41046        0.33551
C          0.86820        1.09229        0.40658
C          3.23909        1.03531        0.81760
C         -1.36437        1.89172        0.34512
C         -2.84148        1.90669        0.10724
C          3.17842        2.32344        1.36163
C          0.80451        2.39099        0.95389
C         -0.59075        2.86050        0.90344
C          1.96096        3.01340        1.43487
C         -1.00443        4.20506        1.41752
H         -1.63622        0.01081       -1.79770
H         -0.29566        1.13046       -2.15767
H          0.04004       -0.56743       -1.74031
H         -0.85509       -0.18924        0.56658
H          2.13353       -0.59576       -0.08574
H          4.19590        0.51256        0.76844
H         -3.31275        2.82817        0.46998
H         -3.07846        1.81109       -0.96570
H         -3.33223        1.05658        0.61120
H          4.09036        2.79560        1.73189
H          1.92293        4.01794        1.86015
H         -2.08051        4.38201        1.30591
H         -0.75163        4.31386        2.48507
H         -0.47245        5.01011        0.88413
