15
1,2,4-BENZENETRIOL.gamout	Energy:    -457.3726700
O         -1.71320        1.72841       -0.00000
O         -2.48934       -0.84537        0.00000
O          2.90614        0.41400        0.00000
C         -0.76451        0.75500       -0.00000
C         -1.13271       -0.60121       -0.00000
C          1.57071        0.11454       -0.00000
C          0.58533        1.11003        0.00000
C         -0.14546       -1.58384       -0.00000
C          1.20919       -1.23612       -0.00000
H          0.84673        2.17012        0.00000
H         -0.43245       -2.63842        0.00000
H          1.98616       -1.99975       -0.00000
H         -2.58736        1.31413       -0.00000
H         -2.67402       -1.79027       -0.00010
H          3.04229        1.36785       -0.00010
