12
1,2,4,5-TETRAFLUOROBENZENE.gamout	Energy:    -628.4704091
C          6.33050        1.84777       -0.66751
C          6.87694        0.61139       -0.33722
C          4.94519        2.02234       -0.71616
F          7.13477        2.88238       -0.94193
C          4.08794        0.96293       -0.43519
F          4.44399        3.22187       -1.03663
C          4.63438       -0.27345       -0.10490
C          6.01968       -0.44802       -0.05625
F          3.83011       -1.30810        0.16944
F          6.52088       -1.64759        0.26414
H          7.95767        0.47501       -0.29938
H          3.00720        1.09929       -0.47311
