30
1,2,4-TRIETHYLBENZENE.gamout	Energy:    -467.4985911
C          2.72991        0.80794        1.83561
C          2.15340        1.70217        2.94661
C          2.83356        3.05500        3.05479
C          2.24052        4.26006        2.61318
C          4.12418        3.09919        3.60880
C          0.85412        4.32574        2.00148
C          2.98102        5.44803        2.73800
C          4.86170        4.28203        3.73117
C          0.81830        4.00605        0.49784
C          4.26581        5.46735        3.27711
C          6.23236        4.28634        4.37323
C          6.19399        4.56037        5.88596
H          2.62366        1.28001        0.84888
H          2.21302       -0.16312        1.80864
H          3.80077        0.61803        1.99642
H          2.25954        1.17690        3.91000
H          1.07479        1.82380        2.78667
H          4.57211        2.16531        3.96045
H          0.45540        5.34020        2.15416
H          0.16700        3.65117        2.53377
H          2.53210        6.38578        2.40184
H          1.15637        2.98043        0.29547
H          1.47553        4.68832       -0.06073
H         -0.20156        4.10954        0.09776
H          4.80828        6.41247        3.35331
H          6.86106        5.04782        3.88507
H          6.72121        3.31637        4.19331
H          5.73859        5.53901        6.09653
H          7.20877        4.55499        6.31135
H          5.59887        3.79687        6.40820
