24
1,2,3,5-TETRAMETHYLBENZENE.gamout	Energy:    -388.9862985
C          0.40452        3.35048        0.76351
C          1.91153        3.23264        0.80945
C          2.69302        4.40774        0.90035
C          2.55908        1.97846        0.76868
C          2.03271        5.76525        0.95348
C          4.08887        4.31330        0.94562
C          1.77867        0.68519        0.67802
C          3.95996        1.92493        0.81672
C          4.74696        3.07808        0.90175
C          6.25506        2.99732        0.91947
H         -0.09181        2.37902        0.68378
H          0.01286        3.84685        1.66647
H          0.07695        3.95951       -0.09436
H          1.36391        5.85871        1.82400
H          1.41543        5.95255        0.06006
H          2.78044        6.56583        1.01723
H          4.67895        5.23029        1.01905
H          2.45812       -0.17672        0.65886
H          1.09984        0.55364        1.53510
H          1.16166        0.64149       -0.23305
H          4.44987        0.94859        0.78756
H          6.60073        2.02662        1.30182
H          6.67233        3.11872       -0.09402
H          6.69275        3.78621        1.54824
