15
1,2,3-BENZENETRIOL.gamout	Energy:    -457.3695953
O          7.19450        2.86250       -0.93659
C          6.30694        1.86385       -0.67154
O          8.19272        0.44764       -0.29117
C          6.84519        0.61058       -0.33668
O          6.59194       -1.63482        0.26112
C          5.97155       -0.45053       -0.05536
C          4.91742        2.03673       -0.71986
C          4.06302        0.96857       -0.43677
C          4.58557       -0.28348       -0.10235
H          6.72620        3.67589       -1.15428
H          8.38699       -0.46760       -0.04770
H          5.94640       -2.32545        0.44378
H          4.50928        3.01584       -0.98139
H          2.98288        1.11276       -0.47709
H          3.92537       -1.12456        0.12056
