24
1,2,4,5-TETRAMETHYLBENZENE.gamout	Energy:    -388.9884466
C          2.07825        3.02664        1.50628
C          0.61581        2.66617        1.60596
C          3.08080        2.04646        1.66244
C          2.46845        4.34843        1.25575
C          2.72405        0.60491        1.93365
C          4.42169        2.43864        1.56024
C          3.80934        4.74063        1.15355
C          4.81187        3.76044        1.30972
C          4.16612        6.18219        0.88245
C          6.27432        4.12088        1.21015
H          0.33126        1.91176        0.85473
H          0.36946        2.23909        2.59154
H         -0.02097        3.54703        1.45414
H          1.69179        5.10798        1.13467
H          3.62448       -0.01438        2.03385
H          2.13820        0.49840        2.86109
H          2.11158        0.17900        1.12254
H          5.19834        1.67908        1.68133
H          4.75256        6.28871       -0.04460
H          3.26565        6.80133        0.78158
H          4.77793        6.60825        1.69399
H          6.55906        4.87453        1.96208
H          6.91105        3.23983        1.36107
H          6.52060        4.54885        0.22495
