12
1,2,3-TRICHLOROBENZENE.gamout	Energy:   -1610.1682945
C          6.33389        1.86145       -0.67095
C          6.87172        0.61834       -0.33902
C          4.95158        2.03896       -0.72051
C          4.10268        0.96731       -0.43629
C          4.62499       -0.29478       -0.09933
Cl         2.37793        1.22941       -0.50847
C          6.02225       -0.45304       -0.05512
Cl         3.56890       -1.62663        0.25406
Cl         6.73301       -1.99389        0.35630
H          6.99705        2.69851       -0.89282
H          7.94962        0.46679       -0.29707
H          4.51921        3.00489       -0.97870
