11
1,2,3-TRICHLOROPROPANE.gamout	Energy:   -1497.2032153
C          3.57681        0.92112        1.28950
C          2.07281        0.98894        1.54184
C          1.68453        2.08580        2.51818
Cl         1.28479        1.25843       -0.08005
Cl         4.46355        0.37391        2.77691
Cl        -0.05990        2.02706        2.97251
H          3.98651        1.89904        1.01044
H          3.80057        0.19183        0.50519
H          1.70488        0.01700        1.89129
H          1.87972        3.07929        2.09685
H          2.25352        1.96051        3.44712
