12
1,2,4-TRICHLOROBENZENE.gamout	Energy:   -1610.1725335
C          6.32743        1.86023       -0.67057
C          6.87288        0.61594       -0.33846
C          4.94674        2.04281       -0.72145
C          4.10750        0.96335       -0.43535
C          4.63097       -0.28481       -0.10224
Cl         2.36886        1.17530       -0.49396
C          6.01736       -0.45938       -0.05344
Cl         6.64332       -2.03203        0.36687
Cl         8.60722        0.43788       -0.28852
H          6.99729        2.69084       -0.89060
H          4.52785        3.01436       -0.98101
H          3.97257       -1.12259        0.11993
