12
1,2,3,4-TETRAFLUOROBENZENE.gamout	Energy:    -628.4654086
F          7.13974        2.87653       -0.94040
C          6.32639        1.85658       -0.66996
C          6.86196        0.61027       -0.33707
C          4.93875        2.01945       -0.71546
F          8.18353        0.44781       -0.29145
C          6.00211       -0.45508       -0.05460
F          4.44756        3.22405       -1.03707
C          4.08646        0.95814       -0.43393
F          6.53718       -1.64193        0.26251
C          4.62267       -0.28963       -0.10071
H          3.00944        1.11773       -0.47810
H          3.97953       -1.13984        0.12495
