28
1,2-DIPHENYLETHANE.gamout	Energy:    -541.2107220
C          4.85817        2.14365        2.48520
C          6.01684        1.21601        2.04126
C          7.37352        1.87422        2.15437
C          3.50175        1.48484        2.37250
C          7.92348        2.58738        1.07706
C          8.10324        1.81593        3.35275
C          2.95002        0.77657        3.45211
C          2.77419        1.53732        1.17251
C          9.16118        3.22626        1.19381
C          9.34087        2.45292        3.47439
C          1.71272        0.13678        3.33614
C          1.53702        0.89935        1.05164
C          9.87496        3.16178        2.39398
C          1.00116        0.19533        2.13437
H          4.88295        3.05736        1.87195
H          5.03623        2.45923        3.52449
H          5.99181        0.30226        2.65442
H          5.83879        0.90052        1.00193
H          7.37690        2.63735        0.13242
H          7.69786        1.25842        4.20039
H          3.49493        0.73119        4.39794
H          3.18090        2.09098        0.32298
H          9.57231        3.77195        0.34216
H          9.89316        2.39146        4.41424
H          1.30022       -0.40500        4.18962
H          0.98637        0.95621        0.11053
H         10.84336        3.65654        2.48658
H          0.03311       -0.30019        2.04229
