8
1,2-DICHLORO-1,1,2-TRIFLUOROETHANE.gamout	Energy:   -1295.9352441
C         -0.57715        1.27684       -0.11087
C          0.96873        1.28307       -0.08076
F          1.43032        0.10224       -0.55711
F         -1.04005        1.11069       -1.35247
Cl         1.60979        2.62406       -1.07389
H          1.31547        1.43060        0.94978
F         -1.03524        2.44430        0.36622
Cl        -1.19680       -0.04769        0.92853
