14
1,2-DIBROMOBUTANE.gamout	Energy:   -5304.4996680
C          2.41236        1.61173        0.09031
C          1.30496        0.58061       -0.06360
C          0.29736        0.77862       -1.19698
Br         2.27756       -1.15439       -0.40405
Br         1.81442        3.26689        1.01505
C         -0.69824        1.93067       -1.00742
H          3.21937        1.24002        0.72407
H          2.81105        1.93019       -0.87880
H          0.80627        0.39875        0.89549
H          0.85339        0.90648       -2.13888
H         -0.26840       -0.15753       -1.30105
H         -1.43547        1.90940       -1.82285
H         -1.24544        1.83669       -0.05785
H         -0.21257        2.91309       -1.01573
