18
1,2-DIBROMOCYCLOHEXANE.gamout	Energy:   -5381.8249364
Br        -3.32298        0.16458        2.80456
C         -3.86765        1.03444        1.09982
C         -5.09250        1.92495        1.28413
C         -4.12957       -0.06015        0.05725
Br        -4.74654        3.42883        2.54157
C         -5.55930        2.51190       -0.05443
C         -4.58789        0.53216       -1.28354
C         -5.82543        1.41359       -1.09304
H         -2.99591        1.63970        0.82169
H         -5.89820        1.35952        1.76870
H         -3.21594       -0.65636       -0.06979
H         -4.90438       -0.74109        0.44353
H         -4.78443        3.19816       -0.43035
H         -6.46082        3.11417        0.11974
H         -4.79539       -0.28446       -1.99059
H         -3.77238        1.13040       -1.72408
H         -6.12594        1.87719       -2.04432
H         -6.67459        0.79138       -0.76366
