8
1,2-DIFLUOROTETRACHLOROETHANE.gamout	Energy:   -2115.5958160
Cl         0.01903        0.97115       -0.05680
C          1.51737        1.94219       -0.00722
Cl         1.14491        3.67994       -0.08235
C          2.35480        1.57515        1.27742
F          2.26376        1.61166       -1.07663
Cl         3.93404        2.40934        1.23493
F          2.58365        0.25006        1.23843
Cl         1.47690        1.96371        2.77480
