11
1,2-DICHLOROPROPANE.gamout	Energy:   -1037.7972586
C          1.58867        0.73010        1.28516
C          2.38968        1.95123        0.85058
C          2.81785        2.87414        1.97689
Cl         3.86904        1.31095       -0.02964
Cl        -0.05056        1.22673        1.89676
H          2.08369        0.19294        2.10277
H          1.41358        0.04985        0.44609
H          1.82990        2.49990        0.08325
H          3.37161        3.73575        1.58371
H          3.45739        2.34384        2.69642
H          1.92545        3.24136        2.50406
