16
1,2-HEXADIENE.gamout	Energy:    -234.2801683
C          1.15398        0.40195       -0.19084
C          2.33346       -0.09406        0.09500
C          3.51330       -0.58999        0.38370
C          4.40005       -0.14215        1.52347
C          5.74737        0.42687        1.04784
C          6.66756        0.83132        2.20054
H          0.23915       -0.02133        0.23515
H          1.04333        1.25445       -0.86796
H          3.90457       -1.38847       -0.26054
H          4.59265       -1.00454        2.18629
H          3.86901        0.60880        2.12787
H          5.55688        1.29507        0.39670
H          6.25338       -0.32389        0.41770
H          6.20163        1.60384        2.83207
H          7.61997        1.23520        1.82758
H          6.89803       -0.03067        2.84583
