14
1,2-DICHLORO-4-NITROBENZENE.gamout	Energy:   -1355.0391147
C          6.29284        1.88026       -0.67603
C          6.80594        0.62605       -0.34129
C          4.91181        2.04392       -0.72195
C          4.05828        0.97027       -0.43714
C          4.59541       -0.28598       -0.10163
Cl         2.34023        1.22491       -0.50733
Cl         3.56731       -1.64432        0.25910
C          5.97899       -0.45807       -0.05381
N          8.26651        0.43449       -0.28785
O          8.68333       -0.67612        0.00831
O          8.97207        1.40000       -0.54356
H          6.97082        2.70328       -0.89399
H          4.47965        3.00994       -0.98019
H          6.41421       -1.42149        0.20338
