14
1,2-DICHLOROBUTANE.gamout	Energy:   -1077.0559072
C          2.09814        2.37361        1.76843
C          0.72804        1.80270        1.40459
C          3.27575        1.66002        1.11435
Cl         3.44409       -0.04515        1.78363
C          4.62731        2.32887        1.33073
Cl         4.72397        3.89956        0.41815
H          2.15366        3.42759        1.45359
H          2.24250        2.36186        2.86016
H         -0.06757        2.35125        1.92744
H          0.53812        1.88778        0.32379
H          0.64935        0.74304        1.68303
H          3.09957        1.51494        0.04070
H          4.79374        2.56476        2.38820
H          5.44378        1.70520        0.95566
