13
1,2-PENTADIENE.gamout	Energy:    -195.0213227
C          0.82741        2.01885        1.01869
C          1.15574        3.49993        1.19399
C          1.96894        1.06573        1.30507
C          3.18173        1.39826        1.68026
C          4.39655        1.71987        2.05458
H          0.47497        1.83218       -0.01079
H         -0.02055        1.74274        1.66964
H          1.47278        3.71660        2.22457
H          0.27755        4.12119        0.96883
H          1.97273        3.80661        0.52471
H          1.75043       -0.00263        1.18367
H          4.66271        1.81169        3.11213
H          5.18815        1.90680        1.32239
