16
1,2-BUTANEDIOL.gamout	Energy:    -308.5060830
O         -0.12804        1.65244        0.49918
O          2.40855        0.57831        0.49752
C          0.08918        0.31986        0.05537
C         -1.18233       -0.48770        0.30315
C          1.30074       -0.27960        0.76164
C         -2.39793        0.04315       -0.45815
H          0.30630        0.32695       -1.03160
H         -1.38843       -0.48668        1.38596
H         -0.98780       -1.53388        0.01472
H          1.10071       -0.33758        1.84596
H          1.49083       -1.29799        0.37922
H         -2.61767        1.07961       -0.16963
H         -2.22307        0.02483       -1.54505
H         -3.28734       -0.56848       -0.25026
H          0.72175        2.11159        0.48002
H          3.16345        0.33169        1.04071
