11
1,2-DIBROMOPROPANE.gamout	Energy:   -5265.2421574
Br        -1.98034        0.11589        0.04558
C         -0.56125       -1.14005       -0.48300
C          0.70393       -1.02820        0.34699
C          1.65289       -2.19429        0.09495
Br         1.65056        0.68497       -0.03467
H         -0.99631       -2.13879       -0.34899
H         -0.36993       -0.96597       -1.54740
H          0.45791       -0.94982        1.41195
H          1.95543       -2.24258       -0.96021
H          2.55628       -2.09355        0.70866
H          1.15515       -3.14030        0.36139
