8
1,2-DIBROMOTETRAFLUOROETHANE.gamout	Energy:   -5622.5134400
C         39.02188       20.02863       -0.04207
C         37.45723       19.94715        0.00542
Br        39.71966       21.66946        0.74911
F         39.54137       18.96629        0.58005
F         39.38581       19.97934       -1.33242
F         36.94219       21.02058       -0.60176
F         37.09082       18.85705       -0.68469
Br        36.75543       19.81452        1.82051
