22
1,2-DIMETHYLCYCLOHEXENE.gamout	Energy:    -312.8503574
C          1.73905        4.52680        1.97575
C          2.46557        3.20654        1.89053
C          1.93470        2.01036        2.22744
C          3.89368        3.33868        1.38971
C          0.51451        1.79490        2.68999
C          2.74337        0.72575        2.15929
C          4.54015        2.01409        0.97629
C          4.25299        0.93905        2.02464
H          2.33705        5.25251        2.55323
H          0.75455        4.45940        2.44955
H          1.60459        4.96705        0.97266
H          4.50219        3.82167        2.17781
H          3.90852        4.04588        0.54302
H          0.03340        1.00835        2.08376
H         -0.11350        2.68948        2.62763
H          0.49222        1.43643        3.73365
H          2.37444        0.11973        1.31008
H          2.52741        0.12170        3.05725
H          5.62319        2.14862        0.83278
H          4.12814        1.69217        0.00500
H          4.74873       -0.00919        1.76563
H          4.66685        1.25962        2.99543
