14
1,2-BENZENEDIOL.gamout	Energy:    -382.2242359
O          0.29635        3.10434        0.21164
C          1.65909        3.11946        0.19241
C          2.31619        1.87423        0.10849
C          2.41648        4.29172        0.25100
O          1.53405        0.75947        0.05305
C          3.71241        1.83603        0.08601
C          3.81556        4.24615        0.22776
C          4.46535        3.01475        0.14511
H         -0.04755        4.00256        0.27001
H          1.90063        5.25358        0.31585
H          2.08196       -0.03117       -0.00272
H          4.21487        0.86711        0.02079
H          4.38818        5.17330        0.27463
H          5.55467        2.96285        0.12610
