22
1,2-DIETHOXYETHANE.gamout	Energy:    -386.9995380
O          1.78004        0.25404        0.00385
O         -1.78001       -0.25400        0.00384
C          0.58184       -0.48888        0.00391
C         -0.58182        0.48893        0.00390
C          2.95034       -0.54085        0.00420
C         -2.95033        0.54086        0.00420
C          4.16714        0.36558        0.00374
C         -4.16711       -0.36558        0.00374
H          0.52050       -1.13941       -0.88892
H          0.52054       -1.13937        0.89677
H         -0.52048        1.13945       -0.88893
H         -0.52054        1.13943        0.89675
H          2.95446       -1.19874        0.89527
H          2.95441       -1.19958       -0.88625
H         -2.95445        1.19875        0.89527
H         -2.95441        1.19960       -0.88625
H          5.08852       -0.23395        0.00403
H          4.16889        1.00769       -0.88815
H          4.16890        1.00855        0.89502
H         -5.08850        0.23392        0.00404
H         -4.16885       -1.00770       -0.88815
H         -4.16885       -1.00856        0.89502
