8
1,2-DIBROMOETHANE.gamout	Energy:   -5225.9843270
Br         0.00741       -0.03671       -0.00010
C          1.69492        0.99817        0.00012
C          1.37518        2.47343       -0.00012
Br         3.06269        3.50831        0.00010
H          2.24055        0.69158        0.89797
H          2.24091        0.69138       -0.89745
H          0.82955        2.78002       -0.89796
H          0.82919        2.78022        0.89745
