13
1,2-PROPYLENE_GLYCOL.gamout	Energy:    -269.2436876
C          0.69798        2.26838        1.54439
O         -0.23216        1.89576        2.55064
C          1.93256        1.37013        1.66930
C          1.63511       -0.08704        1.35443
O          2.93690        1.80682        0.75346
H          0.26937        2.15125        0.53269
H          1.00676        3.32391        1.66520
H         -1.01821        2.44859        2.49836
H          2.30450        1.44884        2.70699
H          0.83301       -0.45976        2.00448
H          1.31855       -0.18645        0.30537
H          2.53433       -0.69897        1.50644
H          3.28485        2.66246        1.02758
