16
1,2-DIMETHOXYETHANE.gamout	Energy:    -308.4714409
C          1.75581        2.06247        3.91116
C          1.82447        1.17151        2.68201
O          2.72127        1.75700        1.76561
O          0.85921        1.47681        4.82766
C          2.87691        1.01902        0.57714
C          0.70252        2.21540        6.01561
H          1.41685        3.07432        3.61753
H          2.76468        2.16303        4.35482
H          0.81563        1.07121        2.23823
H          2.16316        0.15957        2.97567
H          3.27293        0.00673        0.78237
H          1.91676        0.91771        0.03681
H          3.58961        1.56072       -0.05768
H          0.30575        3.22724        5.80960
H         -0.01002        1.67352        6.65046
H          1.66235        2.31785        6.55629
