24
1,2-DIMETHYLNAPHTHALENE.gamout	Energy:    -463.9059995
C          4.65464        3.90225        0.94004
C          4.65488        5.41318        0.98693
C          3.39601        3.20760        0.91212
C          5.84389        3.17571        0.92410
C          3.37164        1.77175        0.86882
C          2.14509        3.89235        0.92586
C          7.20100        3.84569        0.95181
C          5.79571        1.75291        0.88058
C          4.60471        1.06754        0.85391
C          2.12167        1.09267        0.84215
C          0.94865        3.20497        0.89905
C          0.93242        1.78913        0.85679
H          5.66611        5.82831        1.00768
H          4.14244        5.84068        0.11041
H          4.12842        5.78667        1.87964
H          2.12734        4.98066        0.95799
H          7.34141        4.45541        1.85794
H          8.00209        3.09573        0.93299
H          7.35071        4.51036        0.08686
H          6.73603        1.19802        0.86849
H          4.59434       -0.02358        0.82111
H          2.12178        0.00094        0.80967
H          0.00656        3.75640        0.91045
H         -0.01931        1.25542        0.83610
