8
1,2-DIBROMOCHLOROTRIFLUOROETHANE.gamout	Energy:   -5982.7764467
Br        19.73652       39.81211       -0.84977
C         20.00080       38.10287        0.05651
C         21.45893       37.53043       -0.06137
F         19.70447       38.24262        1.35486
F         19.15739       37.19929       -0.46209
Br        22.76240       38.72026        0.77823
Cl        21.87653       37.20715       -1.75831
F         21.45845       36.36397        0.61370
