10
1,2-BUTADIENE.gamout	Energy:    -155.7626523
C          2.73553        2.11583        2.30514
C          1.58411        2.09394        1.67667
C          0.94668        0.87408        1.05823
C          3.88605        2.13857        2.93327
H          1.03347        3.03947        1.59107
H          1.57295       -0.01670        1.19632
H         -0.04016        0.67972        1.50869
H          0.78563        1.02313       -0.02172
H          3.94994        1.96878        4.01253
H          4.82264        2.33127        2.40087
