16
1,3,5,7-CYCLOOCTATETRAENE.gamout	Energy:    -309.1590670
C         -1.72238       -0.66400       -0.00032
C         -1.71435        0.68456       -0.00032
C         -0.68457       -1.71436        0.00031
C         -0.66399        1.72237        0.00032
C          0.66399       -1.72237        0.00032
C          0.68457        1.71434        0.00032
C          1.71434       -0.68456       -0.00032
C          1.72238        0.66400       -0.00032
H         -2.72726       -1.09577       -0.00083
H         -2.71398        1.12829       -0.00083
H         -1.12824       -2.71401        0.00083
H         -1.09575        2.72725        0.00083
H          1.09580       -2.72723        0.00083
H          1.12826        2.71400        0.00083
H          2.71400       -1.12822       -0.00083
H          2.72726        1.09578       -0.00083
