15
1,3,5-CYCLOHEPTATRIENE.gamout	Energy:    -271.1480470
C          3.09483        3.00956        2.94940
C          3.95062        1.76935        3.01717
C          1.64791        2.58876        3.01518
C          3.95289        0.84560        2.02709
C          1.06350        1.87131        2.02628
C          3.04254        0.81751        0.90130
C          1.75284        1.27491        0.90128
H          3.33855        3.69993        3.76714
H          3.28383        3.53541        1.99543
H          4.60790        1.62981        3.87925
H          1.04884        2.89779        3.87554
H          4.68210        0.03094        2.08135
H         -0.01619        1.70001        2.08058
H          3.37478        0.26449        0.01774
H          1.14619        1.05446        0.01795
