21
1,3,5-TRIMETHYLBENZENE.gamout	Energy:    -349.7270785
C          1.91129        4.00506        2.08090
C          0.61625        4.78117        2.14306
C          3.05898        4.57467        1.50894
C          4.26103        3.86162        1.41207
C          5.49407        4.50468        0.82151
C          4.30047        2.54785        1.90387
C          3.17562        1.94981        2.48672
C          1.98838        2.69310        2.56648
C          3.23851        0.54608        3.04253
H          0.79831        5.85158        2.31585
H          0.05752        4.69438        1.19649
H         -0.03615        4.40977        2.94523
H          3.01213        5.59796        1.12692
H          6.02763        5.10164        1.57967
H          6.19880        3.75237        0.44105
H          5.23768        5.18330       -0.00472
H          5.23046        1.97823        1.83317
H          1.10311        2.23762        3.01798
H          2.35706       -0.04205        2.74656
H          4.13585        0.01506        2.69786
H          3.26266        0.56035        4.14440
