12
1,3,5-TRICHLOROTRIFLUOROBENZENE.gamout	Energy:   -1907.5555892
C          6.33909        1.86784       -0.67269
Cl         7.39167        3.19606       -1.02501
C          6.85955        0.61344       -0.33790
C          4.95004        2.02634       -0.71706
F          8.17619        0.44655       -0.29182
C          6.02234       -0.46969       -0.05057
F          4.44112        3.21138       -1.03376
C          4.08593        0.96314       -0.43521
Cl         6.68646       -2.01403        0.36219
C          4.63765       -0.27875       -0.10353
Cl         2.36963        1.18017       -0.49576
F          3.82967       -1.29742        0.16673
