12
1,3,5-TRIFLUOROBENZENE.gamout	Energy:    -529.3493665
C          6.31598        1.83891       -0.66507
C          6.88447        0.61053       -0.33701
C          4.94038        2.04870       -0.72318
F          7.13380        2.87043       -0.93873
C          6.00812       -0.43572       -0.05963
C          4.62279       -0.29770       -0.09847
F          6.52290       -1.63577        0.26084
C          4.12355        0.95838       -0.43397
F          2.79047        1.12691       -0.48084
H          7.96446        0.47439       -0.29919
H          4.52280        3.02055       -0.98292
H          3.96041       -1.13340        0.12331
