12
1,3,5-TRICHLOROBENZENE.gamout	Energy:   -1610.1759072
C          6.33963        1.86859       -0.67290
C          6.85351        0.61435       -0.33808
C          4.95245        2.02093       -0.71575
C          4.08527        0.96331       -0.43536
Cl         4.28073        3.58440       -1.13349
C          4.64168       -0.27376       -0.10489
C          6.02287       -0.47028       -0.05036
Cl         3.57581       -1.61798        0.25162
Cl         8.59081        0.39483       -0.27721
H          7.00145        2.70361       -0.89434
H          3.00625        1.09937       -0.47326
H          6.43981       -1.44143        0.20904
