18
1,3,5-TRINITROBENZENE.gamout	Energy:    -844.7665516
C          6.31805        1.85219       -0.63131
C          6.88031        0.60119       -0.38507
C          4.94120        2.06477       -0.63851
N          7.21976        2.99912       -0.89475
C          6.01062       -0.45944       -0.14086
C          4.62570       -0.30475       -0.13594
N          6.57848       -1.80292        0.12305
C          4.11847        0.96838       -0.38744
N          2.64931        1.16536       -0.38686
O          5.79020       -2.70993        0.33097
O          7.79352       -1.90735        0.11308
O          2.23804        2.29186       -0.60853
O          1.95511        0.18782       -0.16363
O          8.41931        2.77983       -0.88005
O          6.69889        4.08103       -1.10791
H          7.95851        0.45850       -0.38390
H          4.52393        3.05034       -0.83249
H          3.96551       -1.14725        0.05733
