24
1,3-DIMETHYLNAPHTHALENE.gamout	Energy:    -463.9058403
C          4.64684        3.92624        0.90495
C          4.76662        5.43485        0.90496
C          3.38384        3.24695        0.90492
C          5.81149        3.17436        0.90357
C          3.37700        1.80592        0.90332
C          2.12547        3.91964        0.90656
C          5.81966        1.75625        0.90213
C          4.60451        1.09559        0.90216
C          2.12842        1.11860        0.90308
C          0.93613        3.22229        0.90626
C          7.12417        0.99348        0.89916
C          0.93473        1.80465        0.90429
H          5.33650        5.77898        1.78152
H          5.30515        5.78182        0.00966
H          3.80131        5.94917        0.92245
H          6.77132        3.69749        0.90387
H          2.09544        5.00763        0.90852
H          4.57563        0.00333        0.90152
H          2.13597        0.02657        0.90163
H         -0.01113        3.76434        0.90763
H          7.19649        0.32479        1.77074
H          7.21555        0.36480       -0.00016
H          7.98711        1.67177        0.92318
H         -0.01192        1.26150        0.90393
