9
1,3-DICHLOROPROPENE.gamout	Energy:   -1036.5666865
C          2.58973        0.49151        0.18547
C          1.35361       -0.32918        0.31906
C          1.23536       -1.53022       -0.25051
Cl         2.26117        2.04984       -0.72091
Cl        -0.18224       -2.53243       -0.08959
H          2.97793        0.80678        1.16235
H          3.37847       -0.02912       -0.36948
H          0.53393        0.08488        0.91074
H          2.01319       -1.98860       -0.86295
