22
1,3-DIMETHYL-4-ETHENYLBENZENE.gamout	Energy:    -387.7598376
C          5.57085        2.44342        2.05334
C          4.34913        1.98189        1.54413
C          5.73651        3.73565        2.56888
C          3.23137        2.85458        1.54332
C          4.25309        0.57767        0.99412
C          3.39450        4.14729        2.07663
C          1.92861        2.41179        1.00951
C          4.61827        4.58372        2.57554
C          7.07444        4.20657        3.08542
C          0.95634        3.19726        0.51987
H          6.42911        1.76671        2.04656
H          5.22779        0.07522        1.03675
H          3.53834       -0.03680        1.56506
H          3.91696        0.57358       -0.05411
H          2.53245        4.81389        2.12257
H          1.75160        1.33303        1.00957
H          4.70491        5.59131        2.98828
H          6.95875        4.84746        3.97178
H          7.72250        3.36212        3.35726
H          7.60699        4.79938        2.32306
H          1.06308        4.28146        0.44367
H          0.01736        2.77154        0.16415
