11
1,3-DICHLOROPROPANE.gamout	Energy:   -1037.7935526
Cl        -2.75847        0.28117        0.00000
C         -1.25338       -0.73338       -0.00000
C         -0.00000        0.13420       -0.00000
C          1.25338       -0.73337       -0.00000
Cl         2.75847        0.28117        0.00000
H         -1.31460       -1.36878        0.89243
H         -1.31460       -1.36879       -0.89243
H         -0.00000        0.78506       -0.88554
H         -0.00000        0.78507        0.88553
H          1.31459       -1.36878        0.89243
H          1.31459       -1.36878       -0.89243
