14
1,3-BENZENEDIOL.gamout	Energy:    -382.2300078
O          0.29429        2.53477        0.24086
C          1.65774        2.53580        0.18394
C          2.29505        1.29231        0.20024
C          2.40275        3.72269        0.11205
C          3.69034        1.23780        0.14385
C          3.79586        3.64675        0.05643
O          4.26411       -0.00016        0.16279
C          4.45176        2.41415        0.07158
H         -0.04556        3.43659        0.22374
H          1.70981        0.37519        0.25653
H          1.89846        4.69155        0.09962
H          4.38191        4.56567        0.00021
H          5.22439        0.07161        0.12081
H          5.54211        2.36461        0.02787
