22
1,3-DIMETHYLCYCLOHEXENE.gamout	Energy:    -312.8503018
C          2.58756        4.60774        1.30214
C          4.02033        4.64947        1.84637
C          4.83119        3.45423        1.33935
C          1.96101        3.23058        1.38629
C          2.70405        2.13599        1.61878
C          0.47022        3.17052        1.18645
C          4.20840        2.12330        1.79141
C          4.84532        0.92183        1.07709
H          1.95252        5.32990        1.84274
H          2.56961        4.94177        0.24769
H          4.50454        5.59776        1.56819
H          3.99210        4.62368        2.94872
H          4.86639        3.47947        0.23625
H          5.87404        3.51262        1.68782
H          2.20201        1.16476        1.68529
H          0.18289        3.63604        0.22828
H          0.09669        2.13777        1.18954
H         -0.05737        3.73058        1.97714
H          4.42072        2.00389        2.87207
H          4.64882        0.96150       -0.00543
H          5.93559        0.90918        1.22600
H          4.44256       -0.02806        1.45874
