15
1,3-PROPANEDIAMINE.gamout	Energy:    -229.5364312
N          2.49248        0.32650        0.01190
N         -2.51637        0.30542        0.00857
C          0.02592        0.35917       -0.01357
C          1.28809       -0.50318       -0.02665
C         -1.27237       -0.45985        0.00801
H          0.06329        1.02627        0.86301
H          0.02267        1.01204       -0.90516
H          1.25254       -1.18593       -0.90000
H          1.29492       -1.14446        0.86971
H         -1.27906       -1.11061        0.89773
H         -1.29685       -1.13740       -0.86105
H          2.55389        0.93113       -0.80422
H          3.33875       -0.23584        0.03325
H         -2.59835        0.88900       -0.82065
H         -2.57682        0.92093        0.81627
