11
1,3-DIBROMOPROPANE.gamout	Energy:   -5265.2417784
Br        -2.89871        0.17201        0.00000
C         -1.25019       -0.91522       -0.00000
C         -0.00000       -0.04258       -0.00000
C          1.25019       -0.91522       -0.00000
Br         2.89871        0.17200        0.00000
H         -1.31645       -1.54701        0.89347
H         -1.31645       -1.54702       -0.89347
H          0.00000        0.60942       -0.88438
H          0.00000        0.60943        0.88437
H          1.31645       -1.54701        0.89347
H          1.31645       -1.54702       -0.89347
