14
1,3-DIOXANE.gamout	Energy:    -307.2876863
C         -3.10928        1.65628       -0.14281
C         -1.65031        1.98845       -0.46647
C         -2.64653       -0.62221       -0.41938
O         -3.49249        0.43926       -0.77326
H         -3.79753        2.42909       -0.50685
H         -3.24526        1.56115        0.95300
O         -1.31037       -0.39493       -0.78212
H         -2.98713       -1.50885       -0.96464
H         -2.70856       -0.79442        0.67781
C         -0.77860        0.76894       -0.15749
H         -1.31583        2.85670        0.12261
H         -1.56098        2.24291       -1.53289
H         -0.72477        0.60608        0.93743
H          0.24408        0.88807       -0.53602
