22
1,3-DIMETHYL-2-ETHENYLBENZENE.gamout	Energy:    -387.7547637
C          0.97763        4.94965        1.31135
C          1.46802        3.78807        1.77020
C          2.86706        3.30356        1.70783
C          3.98352        4.13344        1.99039
C          3.07551        1.93498        1.38301
C          3.85183        5.58714        2.38874
C          5.27303        3.58206        1.92520
C          1.91058        1.01883        1.08175
C          4.37819        1.42905        1.31810
C          5.47718        2.24628        1.58632
H          1.59709        5.69302        0.80888
H         -0.08407        5.18373        1.40783
H          0.75329        3.08869        2.21519
H          3.78433        6.24820        1.51001
H          2.95557        5.76849        2.99638
H          4.73232        5.90467        2.96323
H          6.13053        4.21880        2.15285
H          1.27062        0.86401        1.96602
H          1.26667        1.42600        0.28779
H          2.26714        0.03271        0.75815
H          4.53034        0.38041        1.05476
H          6.48941        1.83987        1.53959
