13
1,3-PROPYLENE_GLYCOL.gamout	Energy:    -269.2401644
C          2.67691        0.08235        2.06262
O          1.28942        0.01878        1.74402
C          3.45959       -0.36404        0.83507
C          4.96740       -0.26400        1.00394
O          5.37545       -1.14678        2.04678
H          2.91400       -0.57046        2.91840
H          2.96506        1.11591        2.33436
H          0.76515        0.21468        2.52708
H          3.15903        0.25896       -0.02222
H          3.18693       -1.40228        0.59163
H          5.46145       -0.53218        0.05353
H          5.25497        0.77609        1.24864
H          6.33312       -1.12282        2.14215
