14
1,3-DIMETHYLUREA.gamout	Energy:    -303.5130291
O         -0.02693        1.21529        0.29323
N          1.16216       -0.70431       -0.09639
N         -1.16222       -0.71521       -0.09940
C         -0.00544        0.01395        0.04960
C          2.46862       -0.09187        0.02643
C         -2.46058       -0.08150        0.02831
H          1.10935       -1.69221       -0.29674
H         -1.11821       -1.70250       -0.30115
H          3.04755       -0.18667       -0.90597
H          3.04981       -0.54205        0.84684
H          2.31851        0.97191        0.24231
H         -2.59355        0.36253        1.02634
H         -3.23738       -0.83952       -0.12907
H         -2.58906        0.72014       -0.71446
