18
1,4-NAPHTHOQUINONE.gamout	Energy:    -534.4529150
C          3.86785        4.40537        2.05441
O          4.58882        5.39156        2.08045
C          3.98482        3.30708        3.06241
C          2.82940        4.25706        1.00237
C          3.13464        2.18095        3.00147
C          4.94686        3.39757        4.07609
C          2.01889        3.18472        0.94323
C          2.10269        2.07107        1.92503
C          3.25998        1.16266        3.95560
C          5.06505        2.37897        5.02217
O          1.34950        1.11324        1.83905
C          4.22169        1.26167        4.96190
H          2.76630        5.07392        0.28068
H          5.59191        4.27596        4.10355
H          1.25543        3.07482        0.17063
H          2.59369        0.30207        3.89105
H          5.81665        2.45482        5.80965
H          4.31659        0.46656        5.70332
