22
1,4-DIMETHYL-2-ETHENYLBENZENE.gamout	Energy:    -387.7573651
C          0.64265        1.95455        4.04079
C          1.88790        1.44861        4.07243
C          3.01513        1.57222        3.12765
C          2.92861        2.00560        1.77770
C          4.28138        1.20086        3.63352
C          1.63249        2.38748        1.10659
C          4.11251        2.05712        1.02578
C          5.45752        1.26456        2.88347
C          5.35233        1.70456        1.55628
C          6.79297        0.88055        3.47439
H          0.25720        2.58422        3.24312
H         -0.03903        1.75486        4.86876
H          2.14357        0.86145        4.96102
H          4.33893        0.85314        4.66781
H          1.25574        3.35905        1.46511
H          1.77507        2.47180        0.02158
H          0.84313        1.64381        1.29146
H          4.05473        2.38043       -0.01583
H          6.24468        1.76169        0.92887
H          6.67804        0.41991        4.46455
H          7.32588        0.16616        2.82834
H          7.44462        1.76172        3.59010
