16
1,4-BUTANEDIOL.gamout	Energy:    -308.4989146
C          1.64043        0.45212        2.58266
C          1.59938        1.47255        1.45430
O          0.53118        2.37927        1.70494
C          2.76244       -0.57469        2.40857
C          2.80349       -1.59512        3.53694
O          3.87170       -2.50183        3.28631
H          0.66169       -0.05244        2.62791
H          1.76022        0.99405        3.53481
H          1.45353        0.95653        0.48716
H          2.56370        2.01122        1.40076
H          0.48502        3.03593        1.00252
H          3.74118       -0.07013        2.36333
H          2.64266       -1.11664        1.45643
H          1.83917       -2.13379        3.59047
H          2.94932       -1.07909        4.50408
H          3.91779       -3.15854        3.98868
