24
1,4-DIMETHYLCYCLOHEXANE.gamout	Energy:    -314.0711691
C         -0.25041       -1.30453        0.64529
C         -1.38078       -0.59051       -0.11537
C         -1.14098        0.92855       -0.12356
C          0.25041        1.30453       -0.64528
C          1.38078        0.59051        0.11536
C          1.14098       -0.92855        0.12357
H         -0.32333       -1.04242        1.71586
H         -0.39195       -2.39503        0.58344
H         -1.34300       -0.93829       -1.16483
C         -2.75862       -0.94400        0.45039
H         -1.91536        1.42351       -0.73046
H         -1.26073        1.31265        0.90530
H          0.32333        1.04243       -1.71586
H          0.39197        2.39502       -0.58343
C          2.75862        0.94401       -0.45039
H          1.34301        0.93830        1.16482
H          1.91536       -1.42350        0.73047
H          1.26074       -1.31266       -0.90529
H         -2.84485       -0.61553        1.49831
H         -2.93708       -2.02917        0.42435
H         -3.56284       -0.45577       -0.11979
H          2.93706        2.02918       -0.42435
H          2.84486        0.61555       -1.49831
H          3.56285        0.45579        0.11979
