12
1,4-DICHLORO-CIS-2-BUTENE.gamout	Energy:   -1075.8263156
C          1.46705        0.62531        0.53071
C         -1.46705        0.62531       -0.53071
C         -0.63481       -0.57148       -0.21796
C          0.63482       -0.57148        0.21796
Cl         2.83643        0.81144       -0.67504
Cl        -2.83643        0.81144        0.67504
H          0.91250        1.56769        0.50884
H          1.95780        0.52338        1.50659
H         -0.91250        1.56769       -0.50884
H         -1.95779        0.52339       -1.50658
H         -1.12894       -1.53516       -0.36806
H          1.12895       -1.53516        0.36805
