24
1,4-DIMETHYLNAPHTHALENE.gamout	Energy:    -463.9049894
C          4.61070        4.80400        1.49842
C          4.63386        6.23969        1.02103
C          3.39659        4.09303        1.79072
C          5.81211        4.13630        1.65318
C          3.46461        2.71921        2.22805
C          2.10820        4.69183        1.66768
C          5.87589        2.79264        2.08298
C          4.73483        2.06919        2.37261
C          2.24761        2.03321        2.51002
C          0.95219        3.99509        1.95043
C          4.82977        0.63415        2.82893
C          1.02141        2.64848        2.37586
H          4.99623        6.29991       -0.01738
H          5.31665        6.84143        1.63936
H          3.65446        6.72622        1.05025
H          6.74475        4.66290        1.43705
H          2.02633        5.72775        1.34475
H          6.85351        2.31732        2.18791
H          2.28905        0.99600        2.83960
H         -0.01764        4.48452        1.84578
H          4.38985        0.49565        3.82926
H          5.87721        0.31133        2.87526
H          4.29811       -0.04713        2.14567
H          0.10538        2.09829        2.59803
