12
1,4-BUTANOLIDE.gamout	Energy:    -306.1205584
O          0.03409       -1.11013       -0.06227
O          2.00502       -0.03351       -0.02428
C         -1.48583        0.70527       -0.21510
C         -0.09749        1.22527        0.17282
C         -1.36391       -0.79887        0.08178
C          0.80704        0.00586        0.01800
H         -2.30739        1.17048        0.34418
H         -1.67074        0.86689       -1.28670
H         -0.04735        1.54363        1.22664
H          0.27922        2.05238       -0.44006
H         -1.66723       -1.04542        1.11147
H         -1.92002       -1.43733       -0.61449
