14
1,4-DIBROMOBUTANE.gamout	Energy:   -5304.5023885
Br        87.01005       -0.08682        0.00010
C         85.29695        0.89791       -0.00011
C         85.50250        2.40373        0.00010
C         84.15133        3.14609       -0.00009
C         84.35687        4.65190        0.00012
Br        82.64376        5.63662       -0.00010
H         84.76432        0.55483       -0.89448
H         84.76398        0.55465        0.89399
H         86.08886        2.69773        0.88423
H         86.08920        2.69791       -0.88374
H         83.56499        2.85210       -0.88423
H         83.56462        2.85190        0.88374
H         84.88946        4.99500        0.89451
H         84.88984        4.99520       -0.89396
