12
1,4-DICHLORO-TRANS-2-BUTENE.gamout	Energy:   -1075.8290512
C          0.55123        0.17438        0.33779
C         -0.55114       -0.17433       -0.33786
C         -1.87221        0.49162       -0.16359
C          1.87232       -0.49153        0.16357
Cl        -3.12547       -0.67921        0.48174
Cl         3.12557        0.67933       -0.48171
H          0.51021        0.98782        1.06876
H         -0.51012       -0.98777       -1.06883
H         -1.82884        1.32293        0.54915
H         -2.28090        0.84776       -1.11792
H          2.28096       -0.84767        1.11793
H          1.82902       -1.32285       -0.54916
