22
1,5-NAPHTHALENE_DIISOCYANATE.gamout	Energy:    -719.9800279
C          1.34923        1.30850       -0.02636
C          2.48982        0.52172        0.00710
C          2.38249       -0.88479        0.07032
C          1.14718       -1.49764        0.09968
C         -0.03986       -0.71937        0.06639
C         -1.34289       -1.31635        0.09476
C         -2.48349       -0.52958        0.06134
C         -2.37613        0.87693       -0.00188
C         -1.14082        1.48978       -0.03127
C          0.04620        0.71148        0.00203
N         -1.41999       -2.70564        0.15629
C         -2.17917       -3.63966        0.19710
O         -2.82772       -4.61657        0.23970
N          1.42633        2.69780       -0.08791
C          2.18547        3.63184       -0.12864
O          2.83398        4.60878       -0.17132
H          3.47124        0.99661       -0.01529
H          3.29168       -1.48734        0.09617
H          1.06625       -2.58221        0.14870
H         -3.46491       -1.00445        0.08374
H         -3.28532        1.47950       -0.02772
H         -1.05990        2.57435       -0.08029
