22
1,5-DIMETHYLCYCLOHEXENE.gamout	Energy:    -312.8510528
C         -7.68311       -0.40607        0.52818
C         -6.28671       -0.27925       -0.10217
C         -8.65103        0.56374       -0.16386
C         -8.18668       -1.85098        0.49771
C         -5.83743        1.14933       -0.33113
C         -6.70591        2.17240       -0.28179
C         -4.37313        1.34018       -0.62358
C         -8.18317        2.01727       -0.02244
H         -7.59808       -0.09265        1.58474
H         -6.26528       -0.81998       -1.06854
H         -5.54517       -0.79533        0.53186
H         -9.66632        0.44842        0.24621
H         -8.71006        0.30028       -1.23425
H         -8.31394       -2.19688       -0.54049
H         -7.48045       -2.53379        0.99359
H         -9.15852       -1.94674        1.00437
H         -6.33289        3.18927       -0.43915
H         -4.12531        2.39369       -0.80989
H         -3.75310        0.98267        0.21596
H         -4.06992        0.75384       -1.50783
H         -8.42060        2.39063        0.99147
H         -8.74884        2.66709       -0.71038
