17
1,5-DICHLOROPENTANE.gamout	Energy:   -1116.3132617
Cl        -0.02146       -0.08778       -0.00009
C          1.54435        0.83728        0.00011
C          1.31512        2.34015       -0.00012
C          2.63947        3.11725        0.00009
C          2.42302        4.63687       -0.00013
C          3.74065        5.39561        0.00011
Cl         3.48296        7.19593       -0.00009
H          2.09044        0.50709        0.89244
H          2.09083        0.50687       -0.89190
H          0.72029        2.61725       -0.88382
H          0.71990        2.61746        0.88326
H          3.23428        2.82919        0.88344
H          3.23472        2.82898       -0.88289
H          1.83646        4.93087       -0.88388
H          1.83602        4.93107        0.88327
H          4.33949        5.17491        0.89250
H          4.33991        5.17476       -0.89197
