16
1,5-HEXADIENE.gamout	Energy:    -234.2909051
C          2.13289        0.64327        3.38794
C          1.23607        1.82571        3.63123
C          0.67551        2.13899        4.80355
C          3.51789        1.01626        2.80957
C          3.46094        1.59327        1.42198
C          3.94895        2.77998        1.04776
H          1.63743       -0.05025        2.68438
H          2.26926        0.08896        4.32932
H          1.04623        2.47214        2.76722
H          0.03425        3.01554        4.91143
H          0.83683        1.52941        5.69691
H          4.12877        0.09682        2.78447
H          4.02657        1.71885        3.48756
H          2.97677        0.96225        0.66610
H          3.87721        3.12470        0.01471
H          4.43910        3.44774        1.76113
