19
1,5-PENTANEDIOL.gamout	Energy:    -347.7587727
O          2.88425        4.43699        2.75219
C          4.05194        4.23197        1.97786
C          4.82745        2.96819        2.36947
C          4.00634        1.66842        2.35724
C          3.37039        1.29500        0.99448
C          1.85226        1.18642        1.02436
O          1.29680        2.46958        1.33570
H          2.19882        3.83942        2.41377
H          3.79983        4.21165        0.90187
H          4.69404        5.11107        2.13513
H          5.69199        2.87233        1.68872
H          5.23675        3.10915        3.38210
H          4.65982        0.85013        2.69350
H          3.21667        1.75117        3.11889
H          3.75695        0.32567        0.64566
H          3.64421        2.02759        0.21993
H          1.53994        0.44781        1.78386
H          1.47780        0.84677        0.04384
H          0.33651        2.41834        1.37875
