24
1,5-DIMETHYLNAPHTHALENE.gamout	Energy:    -463.9080003
C          4.61612        4.93385        0.78931
C          4.55968        6.44046        0.71417
C          3.40968        4.15363        0.81119
C          5.83680        4.28459        0.84188
C          3.48992        2.71847        0.88435
C          2.12376        4.76402        0.75972
C          5.92016        2.87445        0.91534
C          2.28343        1.93809        0.90375
C          4.77574        2.10801        0.93524
C          0.97938        3.99772        0.78222
C          2.34013        0.43136        0.97809
C          1.06274        2.58743        0.85487
H          5.56989        6.86756        0.70877
H          4.01568        6.87020        1.57016
H          4.04663        6.78189       -0.19901
H          6.75598        4.87346        0.82908
H          2.04370        5.84803        0.70017
H          6.89968        2.39417        0.95417
H          4.85591        1.02368        0.98854
H         -0.00022        4.47780        0.74273
H          1.32965        0.00473        0.98140
H          2.85384        0.08769        1.88986
H          2.88144        0.00320        0.11948
H          0.14341        1.99888        0.87134
