19
1,5-DIMETHYLCYCLOPENTENE.gamout	Energy:    -273.5835420
C          0.54549        2.19672        2.97986
C          1.95483        2.65663        2.57225
C          2.83331        1.53090        2.04152
C          2.78014        3.24808        3.75557
C          2.42590        0.71877        0.84925
C          3.96366        1.40489        2.75183
C          4.08119        2.40502        3.87335
H         -0.03136        3.03776        3.39236
H          0.59855        1.40979        3.74782
H         -0.01660        1.79858        2.12273
H          1.83403        3.41520        1.77729
H          2.19765        3.21345        4.68774
H          3.01217        4.30749        3.57820
H          3.19889       -0.01000        0.57077
H          2.23575        1.36848       -0.02189
H          1.49056        0.16642        1.03555
H          4.73559        0.66082        2.54133
H          4.16820        1.90936        4.85515
H          4.98657        3.02624        3.76870
