20
1,5-CYCLOOCTADIENE.gamout	Energy:    -311.6074026
C          4.28168        2.22952        1.87376
C          2.13453        1.67488        4.12985
C          3.26021        2.31772        1.00866
C          1.18108        2.26275        3.39190
C          1.95663        1.54960        0.99704
C          0.86889        2.13715        1.92068
H          3.37154        3.05401        0.20589
H          0.50814        2.94215        3.92608
H          1.55951        1.56513       -0.02939
H          2.11797        0.49069        1.23138
H         -0.05290        1.53702        1.80566
H          0.59980        3.14217        1.55286
C          4.45847        1.35359        3.08970
C          3.20074        0.69369        3.69317
H          2.15866        1.94515        5.19062
H          5.13392        2.89010        1.68154
H          4.94452        1.96456        3.86952
H          5.19148        0.56073        2.85164
H          3.52082        0.12000        4.57633
H          2.79404       -0.04754        2.99501
