20
1,5-ETHYLCYCLOHEXADIENE.gamout	Energy:    -311.6265145
C         -1.36242        0.36223       -0.06818
C         -0.39786        1.30613       -0.08431
C          1.00702        0.87910       -0.23665
C          1.37959       -0.40329       -0.07494
C          0.36124       -1.45393        0.29626
C         -1.03060       -1.10144       -0.24923
C         -0.64653        2.79481        0.02643
C         -2.09957        3.24004        0.17327
H         -2.41372        0.64291        0.01146
H          1.75500        1.64404       -0.46163
H          2.43192       -0.68555       -0.15492
H          0.67332       -2.44493       -0.06584
H          0.32356       -1.53107        1.40106
H         -1.79516       -1.73105        0.22988
H         -1.07288       -1.34191       -1.32991
H         -0.20264        3.27944       -0.86202
H         -0.05744        3.17822        0.87890
H         -2.70511        2.92776       -0.69046
H         -2.15918        4.33445        0.24687
H         -2.55969        2.81666        1.07831
