22
1,6-HEXANEDIOL.gamout	Energy:    -387.0164353
O         -0.06371        9.02537       -0.00009
C          1.16986        8.31595        0.00011
C          2.30831        9.32567       -0.00010
C          3.69242        8.67059        0.00009
C          4.84085        9.68513       -0.00012
C          6.22496        9.03004        0.00009
C          7.36342       10.03974       -0.00010
O          8.59697        9.33030        0.00012
H         -0.80016        8.40550       -0.00001
H          1.24616        7.66575        0.89155
H          1.24621        7.66532       -0.89101
H          2.19744        9.97539       -0.88333
H          2.19739        9.97582        0.88281
H          3.79128        8.01454        0.88203
H          3.79133        8.01407       -0.88148
H          4.74199       10.34117       -0.88206
H          4.74191       10.34167        0.88143
H          6.33580        8.38029        0.88330
H          6.33587        8.37989       -0.88282
H          7.28713       10.68994       -0.89154
H          7.28705       10.69039        0.89100
H          9.33344        9.95015        0.00003
