20
1,6-DIBROMOHEXANE.gamout	Energy:   -5383.0207637
Br        -0.02560       -0.12007       -0.00011
C          1.64488        0.94044        0.00009
C          1.37419        2.43531       -0.00006
C          2.67864        3.24651        0.00013
C          2.43754        4.75980        0.00001
Br         5.14180        8.12637        0.00019
C          3.47132        7.06585        0.00002
C          3.74199        5.57098        0.00016
H          2.19133        0.61990        0.89450
H          2.19163        0.61976       -0.89409
H          0.77283        2.70136       -0.88307
H          0.77256        2.70145        0.88274
H          3.28200        2.97461        0.88268
H          3.28231        2.97455       -0.88219
H          1.83417        5.03167       -0.88254
H          1.83390        5.03179        0.88234
H          2.92458        7.38652        0.89421
H          2.92485        7.38641       -0.89438
H          4.34334        5.30495        0.88318
H          4.34363        5.30482       -0.88262
