19
1,6-HEPTADIENE.gamout	Energy:    -273.5475647
C          3.64048        1.41199        3.49182
C          3.52279        0.76251        2.10766
C          3.05310        1.71257        0.98662
C          4.77547        2.38372        3.70242
C          1.64216        2.20207        1.16791
C          5.82109        2.60659        2.89978
C          1.25323        3.48117        1.17051
H          2.69580        1.92774        3.73618
H          3.73384        0.61870        4.25584
H          4.48591        0.31089        1.82312
H          2.81025       -0.07550        2.17442
H          3.11583        1.16396        0.03025
H          3.73213        2.57334        0.90324
H          4.72056        2.95092        4.63879
H          0.88108        1.42312        1.30347
H          6.59324        3.32740        3.17366
H          5.95680        2.08703        1.94913
H          1.97088        4.29595        1.04357
H          0.20469        3.75647        1.29605
