22
1,7-OCTADIENE.gamout	Energy:    -312.8030353
C         -0.13675        0.08235       -0.00617
C          1.06232        0.65714       -0.13549
C          2.39248       -0.06446       -0.09402
H          2.40934       -0.84536       -0.87405
H          2.48442       -0.60490        0.86398
C          3.60287        0.85749       -0.27356
H          3.58625        1.63511        0.50984
H          3.51039        1.39279       -1.23443
C          4.94308        0.12125       -0.23000
H          4.95971       -0.65638       -1.01339
H          5.03559       -0.41403        0.73087
C          6.15347        1.04318       -0.40958
H          6.13664        1.82410        0.37043
H          6.06154        1.58360       -1.36760
C          7.48362        0.32156       -0.36810
C          8.68270        0.89629       -0.49745
H         -0.24649       -0.99524        0.14500
H         -1.05517        0.67016       -0.04665
H          1.10304        1.74242       -0.28505
H          7.44286       -0.76371       -0.21851
H          8.79250        1.97387       -0.64867
H          9.60110        0.30844       -0.45696
