24
1,7-DIMETHYLNAPHTHALENE.gamout	Energy:    -463.9095690
C          5.60917        3.90830        0.93335
C          5.67326        5.41544        0.93392
C          4.34438        3.22800        0.90497
C          6.77146        3.15691        0.96009
C          4.32008        1.79202        0.90559
C          3.10204        3.92534        0.87584
C          6.74634        1.74017        0.96047
C          3.05931        1.13214        0.87750
C          5.54436        1.06927        0.93385
C          1.88540        3.26750        0.84848
C          1.88139        1.84343        0.84995
C          0.57733        4.01921        0.81705
H          6.71379        5.76260        0.95688
H          5.19642        5.84203        0.03692
H          5.15737        5.84359        1.80837
H          7.73578        3.66893        0.98173
H          3.10679        5.01525        0.87455
H          7.68633        1.18569        0.98215
H          3.04087        0.04015        0.87805
H          5.51499       -0.02203        0.93404
H          0.92644        1.31362        0.82850
H         -0.00578        3.76175       -0.08145
H         -0.04687        3.76680        1.68910
H          0.73640        5.10533        0.81789
