23
1-(3-CYANOPROPYL)MIM+1.gamout	Energy:    -475.4695548
C         -7.47008       -1.64058       -0.04182
N         -6.01907       -1.42393       -0.01419
H         -7.96296       -0.66590       -0.09740
H         -7.78778       -2.15706        0.87197
H         -7.74268       -2.23489       -0.92201
C         -5.38327       -0.20216       -0.01711
C         -4.03893       -0.44592        0.02171
H         -5.92472        0.73556       -0.04478
N         -3.87660       -1.81613        0.04869
H         -3.20860        0.24741        0.03267
C         -5.08908       -2.38496        0.02617
H         -5.28794       -3.45267        0.03894
C         -2.60333       -2.57272        0.08845
C         -1.38481       -1.65959        0.13457
H         -2.57440       -3.21503       -0.80271
H         -2.63688       -3.22192        0.97491
C         -0.07274       -2.46756        0.18531
H         -1.43306       -1.00928        1.02002
H         -1.36502       -1.01258       -0.75446
C          1.08331       -1.56994        0.21833
H          0.02008       -3.12737       -0.69214
H         -0.04089       -3.11304        1.07784
N          1.96403       -0.82012        0.24323
