26
1-(3-METHOXYPROPOXY)PROPAN-1-OL.gamout	Energy:    -501.4004385
O         -0.91208       -0.32844        0.22934
O          3.86027       -0.45192        0.23999
O         -2.43369        1.44962        0.27674
C          1.47438       -0.37074        0.23539
C          0.22962        0.37051       -0.23038
C         -2.14952        0.15683       -0.22663
C         -3.22483       -0.80607        0.25389
C          2.76010        0.30087       -0.22377
C         -4.62472       -0.46296       -0.25404
C          5.10879        0.07760       -0.13463
H          1.46629       -0.43087        1.33324
H          1.44685       -1.40169       -0.14638
H          0.20587        0.43513       -1.33746
H          0.22941        1.40236        0.16618
H         -2.12744        0.20167       -1.33558
H         -2.92887       -1.81419       -0.07027
H         -3.19492       -0.80081        1.35397
H          2.78893        0.36835       -1.33067
H          2.82040        1.33705        0.16672
H         -4.93455        0.53296        0.08955
H         -4.66439       -0.47245       -1.35471
H         -5.35839       -1.19490        0.11121
H         -2.08682        2.12811       -0.31087
H          5.88492       -0.58069        0.27503
H          5.25318        1.09877        0.26677
H          5.21552        0.11918       -1.23529
