23
1-BROMOHEPTANE.gamout	Energy:   -2849.1429853
C         16.98895       10.06976       -0.00011
C         18.29093        9.26133        0.00011
C         17.20767       11.58382        0.00016
C         18.06555        7.74706       -0.00015
C         19.36048        6.92752        0.00006
C         19.10020        5.41412       -0.00014
C         20.38984        4.61281        0.00007
Br        20.04930        2.65958       -0.00018
H         16.38994        9.78459       -0.88138
H         16.38945        9.78432        0.88073
H         18.89313        9.54195        0.88186
H         18.89358        9.54219       -0.88127
H         16.25138       12.12687       -0.00004
H         17.77402       11.90358        0.88851
H         17.77449       11.90381       -0.88781
H         17.46327        7.46906       -0.88201
H         17.46282        7.46882        0.88135
H         19.96442        7.20007        0.88248
H         19.96481        7.20025       -0.88205
H         18.50145        5.14277       -0.88354
H         18.50104        5.14261        0.88292
H         20.99653        4.79632        0.89427
H         20.99694        4.79650       -0.89380
