14
1-BROMOBUTANE.gamout	Energy:   -2731.3668031
C         -0.08546       -0.06178       -0.04372
C          1.44973        0.00500       -0.04402
C         -0.73923        1.32246       -0.04360
C          2.07520       -1.37913       -0.04253
Br         4.05647       -1.30414       -0.04466
H         -0.42627       -0.63047        0.83760
H         -0.42656       -0.63050       -0.92490
H          1.79914        0.56532        0.83699
H          1.79889        0.56331       -0.92639
H         -0.44125        1.89918        0.84497
H         -1.83551        1.24372       -0.04340
H         -0.44159        1.89917       -0.93230
H          1.81003       -1.95300        0.85268
H          1.80816       -1.95583       -0.93537
