29
1-BROMONONANE.gamout	Energy:   -2927.6604914
C          3.48941        0.52131       -0.00001
C          4.80675       -0.26035        0.00024
C          4.60860       -1.77929        0.00001
C          3.67103        2.04162        0.00018
C          5.92973       -2.56386        0.00017
C          2.34855        2.81470       -0.00012
C          5.68361       -4.06249       -0.00010
C          2.52206        4.33665        0.00006
Br         7.36780       -5.10421        0.00005
C          1.19695        5.10216       -0.00026
H          2.89432        0.22621       -0.88148
H          2.89386        0.22603        0.88109
H          5.40321        0.03067        0.88171
H          5.40367        0.03089       -0.88085
H          4.01187       -2.06694       -0.88243
H          4.01150       -2.06716        0.88212
H          4.26553        2.33835        0.88156
H          4.26602        2.33852       -0.88080
H          6.52523       -2.28532        0.88329
H          6.52559       -2.28507       -0.88262
H          1.75480        2.51590       -0.88159
H          1.75429        2.51574        0.88096
H          5.14254       -4.39152       -0.89465
H          5.14217       -4.39180        0.89412
H          3.11679        4.63195        0.88090
H          3.11731        4.63210       -0.88038
H          1.36114        6.18937       -0.00011
H          0.59603        4.85334       -0.88862
H          0.59549        4.85317        0.88769
