26
1-BROMOOCTANE.gamout	Energy:   -2888.4016923
C         -0.07055       -0.10128        0.00005
C          1.23391        0.69869       -0.00015
C          1.02053        2.21552        0.00012
C          2.32292        3.02194       -0.00008
C          2.10034        4.53669        0.00016
C          3.39688        5.35373       -0.00005
C          3.13902        6.86754        0.00015
C          4.42977        7.66716       -0.00010
Br         4.09143        9.62088        0.00018
H          0.12235       -1.18385       -0.00017
H         -0.67841        0.13058        0.88840
H         -0.67884        0.13085       -0.88794
H          1.83569        0.41900       -0.88137
H          1.83616        0.41873        0.88067
H          0.41922        2.49805        0.88183
H          0.41880        2.49830       -0.88122
H          2.92479        2.74117       -0.88177
H          2.92522        2.74093        0.88124
H          1.49855        4.81570        0.88197
H          1.49815        4.81590       -0.88132
H          4.00024        5.08000       -0.88250
H          4.00066        5.07981        0.88206
H          2.54076        7.13981        0.88357
H          2.54031        7.13997       -0.88291
H          5.03614        7.48291       -0.89433
H          5.03663        7.48271        0.89376
