17
1-BROMOPENTANE.gamout	Energy:   -2770.6257626
Br        -2.02716        0.08662        0.00000
C         -0.24024       -0.77421       -0.00000
C          0.88613        0.24461       -0.00000
C          2.26634       -0.42912       -0.00000
C          3.42068        0.58024       -0.00000
C          4.80274       -0.07507        0.00000
H         -0.22923       -1.40733        0.89420
H         -0.22923       -1.40733       -0.89420
H          0.79014        0.89558       -0.88258
H          0.79014        0.89558        0.88257
H          2.35847       -1.08563        0.88231
H          2.35847       -1.08563       -0.88231
H          3.32237        1.23687       -0.88037
H          3.32237        1.23687        0.88037
H          5.60178        0.68006        0.00000
H          4.94227       -0.71025        0.88827
H          4.94227       -0.71025       -0.88826
