8
1-BROMO-2-CHLOROETHANE.gamout	Energy:   -3112.2594959
Br        -1.57630        0.02798        0.00000
C          0.28984       -0.62119       -0.00000
C          1.23270        0.56108        0.00000
Cl         2.95073       -0.03948        0.00000
H          0.40259       -1.23839        0.89705
H          0.40259       -1.23839       -0.89705
H          1.11450        1.18096       -0.89529
H          1.11450        1.18096        0.89529
