15
1-BUTANETHIOL.gamout	Energy:    -556.2525767
C         18.01017       10.03365       -0.00010
C         19.29633        9.19742        0.00009
C         19.01900        7.69485       -0.00011
C         18.27347       11.54089        0.00010
S         20.61510        6.76501        0.00020
H         17.40431        9.76640       -0.88211
H         17.40389        9.76622        0.88156
H         19.90251        9.45735        0.88363
H         19.90289        9.45752       -0.88313
H         18.44262        7.41173       -0.89189
H         18.44214        7.41156        0.89131
H         17.33232       12.10942       -0.00002
H         18.84844       11.84375        0.88858
H         18.84881       11.84393       -0.88807
H         20.08853        5.51874       -0.00001
