18
1-CHLORONAPHTHALENE.gamout	Energy:    -844.7972468
C          5.71805        0.53036        1.93084
C          4.55727        0.44256        1.10318
C          6.85483        1.19603        1.52796
Cl         5.71433       -0.22930        3.51940
C          3.36290       -0.23384        1.47733
C          4.61609        1.08306       -0.18501
C          6.89340        1.81959        0.25716
C          2.27905       -0.27784        0.62572
C          3.47581        1.01462       -1.03449
C          5.80068        1.76490       -0.57944
C          2.33334        0.35157       -0.64279
H          7.71964        1.23992        2.18924
H          3.31429       -0.71965        2.45034
H          7.79914        2.34399       -0.05108
H          1.37216       -0.80210        0.93183
H          3.52513        1.50161       -2.01034
H          5.83032        2.24554       -1.55873
H          1.46925        0.30989       -1.30798
