14
1-CHLOROBUTANE.gamout	Energy:    -617.6426739
C          2.51713        0.84465        1.18148
C          2.77566        2.21521        1.82298
C          1.56969        2.71586        2.60025
C          3.71936        0.32332        0.39183
Cl         1.87571        4.34389        3.35766
H          2.24779        0.11766        1.96571
H          1.64191        0.91339        0.51387
H          3.64268        2.15391        2.49922
H          3.03534        2.94826        1.04337
H          0.69166        2.84644        1.95560
H          1.30577        2.04398        3.42631
H          3.50487       -0.65667       -0.05718
H          3.98959        1.01424       -0.42114
H          4.60139        0.21052        1.04052
