11
1-CHLOROPROPANE.gamout	Energy:    -578.3837605
C          1.63496        1.91141        1.05926
Cl        -0.04176        2.16319        1.72167
C          2.44302        0.94242        1.90758
C          3.85106        0.73031        1.33997
H          1.50049        1.54275        0.03444
H          2.09841        2.90535        1.01958
H          2.50413        1.32801        2.93650
H          1.90888       -0.01809        1.96343
H          4.41720        1.67353        1.30223
H          4.41727        0.02524        1.96483
H          3.81441        0.31858        0.31976
