6
1-CHLORO-2,2-DIFLUOROETHYLENE.gamout	Energy:    -736.1601517
C         32.01134       17.98876       -0.00000
C         30.68098       17.99149        0.00000
F         29.96349       19.10182        0.00000
F         29.90737       16.92860       -0.00000
Cl        32.94445       16.52864        0.00000
H         32.56190       18.92656       -0.00000
