23
1-CHLOROHEPTANE.gamout	Energy:    -735.4188373
C         -0.03646       -0.10296        0.00014
C          1.25688        0.71464       -0.00011
C          1.02316        2.22865        0.00009
C          2.31662        3.04880       -0.00013
C          2.08039        4.56239        0.00007
C          3.38267        5.37469       -0.00012
C          3.11307        6.87022        0.00010
Cl         4.65264        7.84347       -0.00018
H          0.17154       -1.18268       -0.00002
H         -0.64766        0.12006        0.88848
H         -0.64810        0.12023       -0.88785
H          1.86229        0.44324       -0.88134
H          1.86279        0.44306        0.88073
H          0.41834        2.50328        0.88188
H          0.41790        2.50346       -0.88135
H          2.92119        2.77543       -0.88186
H          2.92162        2.77525        0.88124
H          1.47670        4.83527        0.88262
H          1.47631        4.83544       -0.88216
H          3.98566        5.11426       -0.88378
H          3.98607        5.11406        0.88319
H          2.55857        7.18575        0.89243
H          2.55809        7.18593       -0.89187
