26
1-CHLOROOCTANE.gamout	Energy:    -774.6776678
C         51.98283        0.01691       -0.00010
C         53.33289        0.74021        0.00008
C         54.53747       -0.20689       -0.00011
C         50.78060        0.96608        0.00010
C         55.88088        0.53549        0.00009
C         49.42743        0.24722       -0.00009
C         57.05894       -0.42509       -0.00012
C         48.23079        1.20144        0.00012
Cl        58.65424        0.45370        0.00012
H         51.92399       -0.64443       -0.88191
H         51.92396       -0.64484        0.88139
H         53.39225        1.40066        0.88202
H         53.39227        1.40108       -0.88156
H         54.48018       -0.86690       -0.88266
H         54.48012       -0.86733        0.88211
H         50.84015        1.62751        0.88199
H         50.84018        1.62798       -0.88144
H         55.94722        1.18834        0.88418
H         55.94725        1.18885       -0.88362
H         49.36939       -0.41345       -0.88154
H         49.36936       -0.41392        0.88101
H         57.06567       -1.06315       -0.89257
H         57.06560       -1.06363        0.89197
H         47.27830        0.65194       -0.00007
H         48.24254        1.85158        0.88869
H         48.24261        1.85204       -0.88812
