20
1-CHLOROHEXANE.gamout	Energy:    -696.1602388
C         -0.02150       -0.05954       -0.04077
C          1.50976       -0.02204       -0.04083
C          2.07073        1.40627       -0.04099
C         -0.60363       -1.47634       -0.04069
C          3.58931        1.42460       -0.04088
C         -2.13318       -1.50440       -0.03981
Cl         4.24567        3.12537       -0.04353
H         -0.39703        0.48893        0.84049
H         -0.39707        0.48882       -0.92209
H          1.88567       -0.56838        0.84146
H          1.88565       -0.56854       -0.92303
H          1.70263        1.95241        0.84159
H          1.70273        1.95221       -0.92372
H         -0.22566       -2.02338        0.83963
H         -0.22668       -2.02307       -0.92163
H          4.00644        0.94329        0.85238
H          4.00662        0.94036       -0.93248
H         -2.53870       -0.99705        0.84920
H         -2.51615       -2.53510       -0.04037
H         -2.53975       -0.99569       -0.92757
