14
1-CHLORO-2-METHYLPROPANE.gamout	Energy:    -617.6431828
Cl        -1.78644       -0.03595       -0.07261
C         -0.14889       -0.71709        0.35059
C          1.00299        0.03449       -0.31453
C          1.10730        1.48948        0.15513
C          2.30912       -0.73457       -0.05599
H         -0.07922       -0.67564        1.44557
H         -0.18017       -1.76589        0.03321
H          0.81301        0.02942       -1.40062
H          0.18275        2.04478       -0.04843
H          1.30238        1.53580        1.23861
H          1.93472        2.00180       -0.35611
H          2.25372       -1.76920       -0.42519
H          3.15084       -0.24100       -0.56260
H          2.54358       -0.76895        1.01972
