31
1-DECANAL.gamout	Energy:    -467.7091395
C          4.20007        2.23498        3.56045
C          2.87386        2.80025        3.04386
C          4.41083        2.42360        5.06558
C          2.67034        2.60523        1.53762
C          1.34551        3.16734        1.01898
C          7.29089        1.46269        7.56364
C          5.95819        2.03763        7.07626
C          7.51032        1.64053        9.07725
C          5.73973        1.85446        5.57143
O          9.10429       -0.12862        9.41269
C          8.82095        1.03919        9.54239
H          4.25514        1.15891        3.32091
H          5.03491        2.70943        3.01580
H          2.81790        3.87694        3.28170
H          2.03859        2.32536        3.58785
H          3.57828        1.94750        5.61210
H          4.35792        3.49909        5.30843
H          3.50841        3.07799        0.99797
H          2.73042        1.52856        1.30549
H          1.27248        4.24993        1.20594
H          1.23776        3.00693       -0.06355
H          0.48849        2.68655        1.51573
H          8.11887        1.94430        7.01671
H          7.34735        0.38940        7.32747
H          5.13047        1.55759        7.62651
H          5.90715        3.11208        7.32345
H          6.70028        1.12756        9.62383
H          7.47350        2.70564        9.35342
H          6.57112        2.33126        5.02383
H          5.79256        0.77959        5.32752
H          9.55318        1.73722       10.02118
