30
1-DECENE.gamout	Energy:    -392.5542475
C          5.60109       -0.20734       -0.57041
C          4.56621       -0.27795        0.27244
C          3.30289        0.53155        0.18353
C          2.02778       -0.32770        0.15967
C          0.73996        0.49768        0.09530
C         -0.53390       -0.35243        0.07286
C         -1.82305        0.47169        0.00978
C         -3.09770       -0.37690       -0.01469
C         -4.38626        0.44920       -0.07981
C         -5.65849       -0.39985       -0.10702
H          6.48763       -0.83020       -0.43899
H          5.59906        0.47687       -1.42338
H          4.61953       -0.98344        1.11110
H          3.24921        1.21078        1.05416
H          3.33640        1.17507       -0.71047
H          2.07282       -1.01426       -0.70212
H          2.00533       -0.96722        1.05889
H          0.70468        1.18335        0.95989
H          0.76343        1.14071       -0.80160
H         -0.49682       -1.03798       -0.79151
H         -0.55708       -0.99635        0.96922
H         -1.85898        1.15719        0.87440
H         -1.79826        1.11587       -0.88642
H         -3.06081       -1.06193       -0.87986
H         -3.12351       -1.02166        0.88129
H         -4.41967        1.13425        0.78431
H         -4.35513        1.09346       -0.97484
H         -6.56001        0.22808       -0.15580
H         -5.67035       -1.06970       -0.98097
H         -5.73672       -1.02862        0.79347
