28
1-DECYNE.gamout	Energy:    -391.3076465
C          7.19830        0.76536        0.93248
C          5.93645        1.63331        0.94849
C          4.63579        0.82494        0.95810
C          8.49537        1.57782        0.92466
C          3.37254        1.69065        0.97412
C          9.75477        0.68895        0.90751
C          2.07199        0.88101        0.98416
C         11.00739        1.44503        0.90023
C          0.81144        1.74835        1.00071
C         12.03585        2.08595        0.89410
H          7.17425        0.10605        0.04730
H          7.19062        0.09738        1.81146
H          5.94358        2.30086        0.06952
H          5.96113        2.29352        1.83265
H          4.62984        0.15746        1.83742
H          4.61226        0.16417        0.07406
H          8.53268        2.23192        1.81014
H          8.51578        2.24214        0.04624
H          3.37782        2.35863        0.09498
H          3.39570        2.35155        1.85830
H          9.72636        0.03049        0.02255
H          9.74324        0.02016        1.78509
H          2.06951        0.21398        1.86284
H          2.05125        0.22108        0.10038
H          0.76708        2.40157        0.11539
H         -0.09976        1.13275        1.00812
H          0.78605        2.39480        1.89173
H         12.94856        2.64818        0.88876
