24
1-ETHYLNAPHTHALENE.gamout	Energy:    -463.9036459
C          5.46176        4.41907        2.13771
C          6.26034        4.63989        0.84160
C          3.95875        4.45107        1.94739
C          3.25200        5.60025        2.25909
C          1.85184        5.69439        2.06768
C          1.14851        4.62337        1.56501
C          1.81933        3.41290        1.23626
C          1.11175        2.28861        0.72422
C          1.76463        1.11661        0.40977
C          3.16536        1.01778        0.59890
C          3.88090        2.08795        1.09477
C          3.24260        3.31831        1.42715
H          5.73574        5.20200        2.86005
H          5.76505        3.46722        2.60161
H          6.04014        3.86787        0.09102
H          7.34155        4.61919        1.04420
H          6.01376        5.61416        0.39523
H          3.78894        6.46125        2.66284
H          1.33542        6.62225        2.32061
H          0.06887        4.68548        1.41699
H          0.03168        2.37175        0.58615
H          1.20678        0.26332        0.02021
H          3.68032        0.08807        0.35015
H          4.95592        1.98677        1.23386
