22
1-ETHYL-3-ETHENYLBENZENE.gamout	Energy:    -387.7582784
C          6.52571        2.60910        1.54826
C          5.20028        2.66790        0.77153
C          4.00637        2.96749        1.65332
C          3.29733        1.93158        2.27787
C          3.60052        4.28744        1.89565
C          2.20823        2.17468        3.13493
C          2.51925        4.55365        2.74364
C          1.51557        1.02804        3.75111
C          1.82798        3.51307        3.35855
C          0.48845        1.05740        4.61361
H          6.49633        1.82628        2.32030
H          6.72872        3.56580        2.05159
H          7.36634        2.39222        0.87230
H          5.27309        3.43693       -0.01298
H          5.04003        1.70878        0.25469
H          3.59699        0.89680        2.09187
H          4.12985        5.11284        1.41474
H          2.21018        5.58569        2.92014
H          1.90578        0.04842        3.45608
H          0.98402        3.73992        4.01001
H          0.03853        1.98780        4.96496
H          0.06089        0.13267        5.00097
