22
1-ETHYLCYCLOHEXENE.gamout	Energy:    -312.8479962
C          4.34825        0.97612        2.46077
C          5.77392        1.06662        1.90503
C          6.28306        2.51023        1.95090
C          3.42632        2.06015        1.93502
C          3.91482        3.15106        1.32096
C          1.95230        1.81007        2.16787
C          5.38463        3.42474        1.10891
C          0.97799        2.90063        1.72616
H          4.37106        1.03367        3.56542
H          3.91286       -0.01146        2.23223
H          5.78003        0.71393        0.85965
H          6.44277        0.39751        2.46751
H          7.32477        2.56909        1.60048
H          6.27985        2.86008        2.99709
H          3.22401        3.90650        0.93977
H          1.68461        0.85949        1.67102
H          1.80882        1.60936        3.24582
H          5.59716        4.48240        1.33657
H          5.62669        3.30457        0.03625
H          1.18292        3.85308        2.23680
H          1.03631        3.07961        0.64247
H         -0.05520        2.60912        1.96049
