21
1-ETHOXYBUTANE.gamout	Energy:    -311.8740697
O         -1.23101       -0.25745        0.00050
C          1.16266       -0.33947        0.00082
C          2.47315        0.45335        0.00694
C         -0.07216        0.54958        0.00610
C          3.71584       -0.43959        0.00132
C         -2.44290        0.46937        0.00426
C         -3.60680       -0.50509       -0.00245
H          1.11956       -0.99113       -0.88677
H          1.11854       -1.00278        0.87971
H          2.49917        1.11022        0.89291
H          2.50024        1.12226       -0.86996
H         -0.07039        1.20486        0.90083
H         -0.06986        1.21629       -0.88012
H          3.73613       -1.09588        0.88500
H          3.73698       -1.08328       -0.89154
H          4.63874        0.15810        0.00605
H         -2.48750        1.12192        0.89859
H         -2.48635        1.13272       -0.88215
H         -4.56153        0.03973        0.00041
H         -3.56978       -1.14178       -0.89741
H         -3.57074       -1.15266        0.88470
