18
1-FLUORONAPHTHALENE.gamout	Energy:    -484.5219922
C          5.80179        1.75416       -0.55656
F          5.84499        2.35128       -1.76877
C          4.60370        1.08294       -0.19585
C          6.90119        1.82029        0.26261
C          4.56673        0.45147        1.09362
C          3.46711        1.01683       -1.04758
C          6.84594        1.19082        1.53234
C          5.71031        0.52372        1.93908
C          3.37511       -0.22738        1.47560
C          2.33191        0.34897       -0.63920
C          2.28533       -0.27811        0.63218
H          7.79267        2.35107       -0.07188
H          3.51038        1.50092       -2.02264
H          7.71715        1.24048        2.18738
H          5.67363        0.04144        2.91707
H          3.33772       -0.71039        2.45391
H          1.46229        0.30123       -1.29689
H          1.38023       -0.80332        0.94228
