11
1-FLUOROPROPANE.gamout	Energy:    -218.1055987
C         34.99904       10.01746        0.00010
C         33.69028        9.24860       -0.00011
C         33.90541        7.73223        0.00010
F         34.75152       11.39421       -0.00010
H         35.60052        9.79486        0.89572
H         35.60091        9.79468       -0.89522
H         33.10744        9.55009       -0.88430
H         33.10703        9.55029        0.88374
H         32.94263        7.20256       -0.00007
H         34.46590        7.40502        0.88921
H         34.46631        7.40483       -0.88869
