20
1-FLUOROHEXANE.gamout	Energy:    -335.8817398
C         68.98606       10.02165        0.00011
C         67.68717        9.20815       -0.00011
C         67.92702        7.69386        0.00009
C         68.76150       11.53685       -0.00011
C         66.63629        6.89720       -0.00012
C         70.06026       12.34585        0.00012
F         66.91384        5.52507        0.00012
H         69.58859        9.74194        0.88145
H         69.58901        9.74175       -0.88089
H         67.08559        9.48805       -0.88203
H         67.08517        9.48823        0.88146
H         68.51810        7.40744        0.88468
H         68.51850        7.40727       -0.88417
H         68.15732       11.81257       -0.88086
H         68.15690       11.81275        0.88030
H         66.02970        7.10481       -0.89558
H         66.02927        7.10502        0.89499
H         69.85912       13.42681       -0.00004
H         70.66990       12.11870        0.88835
H         70.67033       12.11852       -0.88777
