23
1-FLUOROHEPTANE.gamout	Energy:    -375.1405055
C         70.02018       10.03633        0.00013
C         68.70703        9.24585       -0.00007
C         68.89871        7.72687        0.00012
C         69.80265       11.55406       -0.00009
C         67.57933        6.94641       -0.00011
C         71.10359       12.33399        0.00010
C         67.76489        5.42792        0.00007
F         70.84300       13.70940       -0.00012
H         70.61682        9.74644        0.88205
H         70.61721        9.74623       -0.88146
H         68.11054        9.53814       -0.88118
H         68.11019        9.53830        0.88075
H         69.49451        7.43251        0.88160
H         69.49491        7.43234       -0.88104
H         69.21534       11.84814       -0.88466
H         69.21497       11.84833        0.88418
H         66.98656        7.24585       -0.88075
H         66.98614        7.24600        0.88019
H         71.70737       12.11842        0.89552
H         71.70776       12.11821       -0.89502
H         66.79694        4.90615       -0.00014
H         68.32415        5.09583        0.88831
H         68.32460        5.09568       -0.88784
