19
1-HEXANAL.gamout	Energy:    -310.6759556
C          2.60221        0.20618       -0.28963
C          1.30087       -0.55235       -0.22248
C          0.08386        0.37849       -0.09043
C         -1.24857       -0.37642       -0.05651
C         -2.46627        0.54311        0.07803
C         -3.79748       -0.21049        0.11336
O          3.55135        0.02228        0.43486
H          2.64898        0.99675       -1.08345
H          1.21295       -1.12978       -1.16167
H          1.35571       -1.26951        0.60915
H          0.18629        0.98194        0.82674
H          0.07521        1.09463       -0.93000
H         -1.34687       -0.98332       -0.97355
H         -1.23840       -1.09386        0.78215
H         -2.36101        1.14938        0.99345
H         -2.47174        1.26054       -0.76014
H         -4.64640        0.48110        0.21061
H         -3.94601       -0.79711       -0.80638
H         -3.83516       -0.90935        0.96332
