22
1-HEPTANAL.gamout	Energy:    -349.9347974
C          3.60347        1.53578        3.14303
C          2.63477        2.67459        2.80958
C          2.08095        2.60380        1.38363
C          4.15373        1.61173        4.57851
C          1.11512        3.74393        1.04393
C          5.13518        0.50391        4.86424
C          0.56316        3.67240       -0.38088
O          5.01585       -0.32639        5.73398
H          4.44111        1.55073        2.42530
H          3.09515        0.56749        3.00254
H          3.14820        3.64106        2.95500
H          1.79848        2.66338        3.52882
H          1.56825        1.63659        1.24024
H          2.91884        2.61184        0.66504
H          3.34494        1.57293        5.32192
H          4.69316        2.56835        4.70637
H          0.28089        3.73544        1.76535
H          1.63148        4.70777        1.19117
H          6.02551        0.47787        4.18346
H          0.01084        2.73418       -0.54536
H         -0.12336        4.50591       -0.58744
H          1.37450        3.71396       -1.12386
