18
1-HEXENE.gamout	Energy:    -235.5187333
H         -2.36402       -0.99642       -0.00001
H         -2.57181       -2.84248        0.00004
C         -1.89835       -1.98396        0.00001
H         -0.18244       -3.17706        0.00004
C         -0.57221       -2.15232        0.00001
H          1.14131       -1.24511        0.87497
H          1.14131       -1.24518       -0.87499
C          0.48518       -1.07993       -0.00002
H         -0.64164        0.54207       -0.88238
H         -0.64163        0.54208        0.88232
C         -0.00198        0.36999       -0.00003
H          1.78311        1.21522        0.88143
H          1.78320        1.21533       -0.88138
C          1.14227        1.38891        0.00000
H          0.05579        3.06556       -0.88811
H          0.05572        3.06561        0.88808
H          1.51933        3.53867        0.00005
C          0.66832        2.84359        0.00001
