20
1-IODOHEXANE.gamout	Energy:    -533.8480198
C         -0.04442       -0.05908        0.00004
C          1.31050        0.65252       -0.00018
C          1.19398        2.18039        0.00016
C          2.54676        2.90117       -0.00004
C          2.40398        4.43241        0.00024
C          3.75594        5.12575       -0.00006
I          3.56918        7.31640        0.00018
H          0.07630       -1.15175       -0.00022
H         -0.63441        0.21422        0.88824
H         -0.63488        0.21459       -0.88773
H          1.89337        0.33461       -0.88082
H          1.89384        0.33425        0.88003
H          0.61232        2.50133        0.88129
H          0.61190        2.50167       -0.88057
H          3.12838        2.58427       -0.88232
H          3.12883        2.58396        0.88183
H          1.82521        4.74490        0.88291
H          1.82473        4.74514       -0.88204
H          4.34395        4.89867       -0.89572
H          4.34449        4.89848        0.89519
