11
1-IODOPROPANE.gamout	Energy:    -416.0715953
C          0.14764        0.32040        0.71107
C          1.68151        0.24964        0.71110
C          2.29989        1.63828        0.71111
I          4.49553        1.59062        0.71130
H         -0.28386       -0.69084        0.71089
H         -0.23023        0.84714       -0.17848
H         -0.23027        0.84683        1.60079
H          2.02662       -0.30949       -0.17145
H          2.02658       -0.30951        1.59365
H          2.03458        2.21386        1.60514
H          2.03475        2.21379       -0.18300
