16
1-METHOXY-2-PROPANOL.gamout	Energy:    -308.4879519
O          3.22411       -0.71088        0.86290
O          0.41794       -0.80927        0.10614
C          1.02237        0.23763        0.86482
C          2.45860        0.36803        0.37966
C          0.24668        1.54715        0.71542
C          4.54720       -0.72648        0.38656
H          1.06066       -0.05118        1.93023
H          2.45680        0.38191       -0.72779
H          2.88592        1.32781        0.73081
H         -0.78946        1.41879        1.06020
H          0.70517        2.35029        1.31187
H          0.21812        1.85991       -0.33874
H         -0.38569       -1.10905        0.54331
H          5.04760       -1.59751        0.82793
H          5.09518        0.18990        0.67914
H          4.57803       -0.81386       -0.71568
