15
1-METHOXYPROPANE.gamout	Energy:    -233.3515060
O          1.20716       -0.45372        0.00505
C         -1.18769       -0.51055        0.00348
C          0.05648        0.36570        0.00153
C         -2.48514        0.29942       -0.00056
C          2.41647        0.26539        0.00392
H         -1.14637       -1.16970       -0.87752
H         -1.14802       -1.16375        0.88897
H          0.06270        1.02362       -0.89172
H          0.06150        1.02960        0.89033
H         -2.55533        0.94181       -0.89209
H         -3.36118       -0.36448        0.00090
H         -2.55707        0.94802        0.88633
H          2.50504        0.90545       -0.89451
H          3.23713       -0.46323        0.00643
H          2.50379        0.91028        0.89901
