27
1-METHYL-1-ISOPROPYLCYCLOPENTANE.gamout	Energy:    -353.3124082
C         -0.69125       -0.80437       -0.44258
C          0.85921       -0.74341       -0.44813
C          1.23896        0.27730        0.64670
C          0.01553        1.23180        0.76797
C         -1.04954        0.68841       -0.21489
C         -1.29814       -1.41413       -1.74780
C         -2.83205       -1.29681       -1.79763
C         -0.70891       -0.86087       -3.05617
C         -1.14654       -1.64240        0.77237
H          1.21496       -0.37364       -1.41811
H          1.31689       -1.73172       -0.29209
H          2.16088        0.81690        0.39127
H          1.43312       -0.22711        1.60359
H          0.28219        2.27137        0.53360
H         -0.37108        1.23826        1.79667
H         -2.07296        0.82255        0.16073
H         -0.98594        1.23456       -1.16773
H         -1.05495       -2.49131       -1.72058
H         -3.14615       -0.24541       -1.88174
H         -3.31979       -1.72374       -0.91231
H         -3.22728       -1.82744       -2.67572
H         -0.83184        0.23019       -3.13041
H         -1.22875       -1.30454       -3.91737
H          0.35797       -1.08998       -3.16891
H         -0.68404       -1.29198        1.70444
H         -0.86473       -2.69771        0.63994
H         -2.23362       -1.59896        0.91711
