22
1-METHYL-4-ISOPROPENYLBENZENE.gamout	Energy:    -387.7604104
C          5.57956        5.59202        2.06321
C          5.70793        4.11560        1.76296
C          6.92183        3.54078        1.67937
C          4.45115        3.33656        1.58080
C          3.24306        3.74675        2.17337
C          4.41576        2.16151        0.80189
C          2.06774        3.00728        2.01844
C          3.24248        1.42807        0.64821
C          2.04074        1.83337        1.25481
C          0.76931        1.04381        1.06006
H          5.13261        5.76347        3.05550
H          6.56290        6.07835        2.05489
H          4.93215        6.09487        1.32783
H          7.83317        4.12952        1.79340
H          7.04941        2.47024        1.51578
H          3.21430        4.64995        2.78272
H          5.31909        1.83023        0.28870
H          1.15242        3.35292        2.50442
H          3.25456        0.52455        0.03355
H         -0.00638        1.34732        1.77604
H          0.36127        1.19000        0.04638
H          0.94505       -0.03519        1.18570
