30
1-METHYL-4-ISOPROPYLCYCLOHEXANE.gamout	Energy:    -392.5851399
C          2.95661        0.95504        5.15127
C          3.14711        1.70175        3.82582
C          2.08554        1.73251        6.14875
C          1.81490        2.08232        3.15085
C          0.93421        2.84603        4.15956
C          2.02239        2.86695        1.82867
C          0.75018        2.09535        5.48417
C          1.88928        0.96518        7.45869
C          0.69473        3.25239        1.15704
C          2.89789        2.09975        0.82460
H          3.93909        0.73628        5.59886
H          2.48124       -0.02302        4.95531
H          3.75596        1.08283        3.15373
H          3.72545        2.62539        4.00955
H          2.60873        2.67919        6.38203
H          1.28926        1.14118        2.89421
H         -0.05417        3.05188        3.72764
H          1.39859        3.82907        4.35751
H          2.55037        3.80382        2.08755
H          0.18191        1.16585        5.29952
H          0.13836        2.70000        6.17233
H          1.37099        0.00907        7.28087
H          2.85401        0.73794        7.93639
H          1.28645        1.54305        8.17508
H          0.08834        2.35705        0.94358
H          0.09037        3.92964        1.77371
H          0.88110        3.76102        0.20019
H          2.45249        1.11952        0.58900
H          2.98741        2.65825       -0.11822
H          3.91542        1.92668        1.19718
