31
1-METHYLDECALIN.gamout	Energy:    -430.6507175
C         -0.00044        0.50394       -0.20244
C          0.35469       -0.93987        0.23150
C         -1.41855        0.90489        0.27262
C          1.09227        1.48241        0.26675
C         -0.70914       -1.94672       -0.22490
C          1.75873       -1.33959       -0.24779
C         -2.46136       -0.13375       -0.17923
C         -2.10860       -1.55807        0.25740
C          2.49253        1.07560       -0.20718
C          2.83811       -0.35629        0.21583
C         -1.83300        2.30818       -0.18750
H         -0.01071        0.51945       -1.31063
H          0.36820       -0.94741        1.33904
H         -1.40416        0.90216        1.37914
H          1.07620        1.52680        1.37066
H          0.87006        2.49883       -0.08567
H         -0.44126       -2.95373        0.13224
H         -0.70247       -1.99834       -1.32835
H          1.75833       -1.38875       -1.35141
H          1.99048       -2.35737        0.10460
H         -2.53860       -0.09983       -1.28083
H         -3.45214        0.15295        0.20662
H         -2.85723       -2.26965       -0.12358
H         -2.14712       -1.62349        1.35837
H          3.24055        1.78495        0.17930
H          2.53505        1.14762       -1.30786
H          3.82067       -0.65180       -0.18348
H          2.92228       -0.40000        1.31560
H         -1.80416        2.38374       -1.28626
H         -2.86016        2.53507        0.13416
H         -1.18432        3.09339        0.22138
