24
1-METHYL-2-PROPYLBENZENE.gamout	Energy:    -388.9809147
C          1.74673        4.40525        2.12989
C          0.81141        5.59761        1.92047
C          2.92468        4.38407        1.13584
C          3.85591        3.20532        1.32955
C          3.60318        2.01094        0.63709
C          4.40574        0.88067        0.80579
C          5.49136        0.93538        1.68170
C          5.75805        2.11941        2.37330
C          4.95849        3.26167        2.21482
C          5.29413        4.52534        2.97346
H          1.18133        3.46476        2.03001
H          2.13747        4.41545        3.15974
H          1.34837        6.55082        2.04643
H         -0.02093        5.58437        2.63893
H          0.38028        5.59057        0.90728
H          3.47942        5.33104        1.22053
H          2.51832        4.35755        0.11208
H          2.75673        1.97072       -0.05308
H          4.18555       -0.03434        0.25268
H          6.13209        0.06337        1.82536
H          6.61171        2.16122        3.05391
H          6.15868        4.36868        3.63136
H          4.45513        4.86507        3.59920
H          5.54212        5.35419        2.29117
