25
1-N-BUTYLCYCLOPENTENE.gamout	Energy:    -352.0987324
C          2.86506        3.68727        1.22625
C          1.41373        3.87027        0.84883
C          3.15301        2.42749        1.59097
C          0.75316        2.56270        1.35797
C          1.91471        1.55063        1.50489
C          4.49825        1.88454        1.98238
C          5.93379        0.82615        3.85401
C          4.58993        1.45522        3.45974
C          7.13207        1.77833        3.79174
H          3.60371        4.48931        1.16146
H          1.30731        3.98307       -0.24580
H          0.96229        4.77078        1.29436
H         -0.04717        2.20304        0.69705
H          0.30213        2.74335        2.34507
H          1.99517        0.88213        0.62737
H          1.78985        0.89180        2.37793
H          4.73282        1.00797        1.35024
H          5.26674        2.64102        1.76612
H          6.12580       -0.04774        3.20783
H          5.84485        0.43125        4.87876
H          3.78753        0.73211        3.67397
H          4.39068        2.33354        4.09652
H          8.04969        1.27984        4.13669
H          6.96946        2.66022        4.43123
H          7.31918        2.13813        2.76950
