28
1-N-BUTYLCYCLOHEXENE.gamout	Energy:    -391.3641136
C          2.08669        2.71994        4.02553
C          3.43508        2.07582        3.64901
C          4.34133        2.97652        2.84047
C          1.20420        1.85575        4.93811
C          5.04526        4.09034        3.59253
C          4.52692        2.80258        1.52083
C          0.70255        0.55605        4.30112
C          5.62960        5.16805        2.67182
C          5.42554        3.65812        0.66172
C          6.37332        4.53135        1.49462
H          2.27157        3.68229        4.52837
H          1.53855        2.95886        3.09853
H          3.95408        1.78261        4.58047
H          3.25499        1.14849        3.08610
H          1.76170        1.62142        5.86121
H          0.33590        2.45692        5.25221
H          5.84879        3.64257        4.20741
H          4.35094        4.54799        4.31520
H          3.99684        1.98665        1.01908
H          0.14042        0.76308        3.37686
H          0.03339        0.01397        4.98523
H          1.52919       -0.12214        4.04483
H          6.29572        5.83267        3.24297
H          4.81034        5.79746        2.28501
H          4.80535        4.29552        0.00422
H          6.00499        3.01438       -0.02058
H          7.19376        3.90530        1.88463
H          6.83775        5.30301        0.86179
