22
1-N-PROPYLCYCLOPENTENE.gamout	Energy:    -312.8397314
C          3.97561        2.80224        2.34514
C          5.12702        1.98878        2.89072
C          3.02642        2.03996        1.77768
C          4.57483        0.54076        2.86838
C          3.40537        0.57129        1.85650
C          1.77557        2.46456        1.05784
C          0.86359        4.35846        2.54273
C          1.37958        3.94365        1.16093
H          3.96175        3.89229        2.38130
H          6.01916        2.09624        2.24665
H          5.43780        2.30667        3.89853
H          5.34109       -0.20545        2.61684
H          4.18681        0.28408        3.86537
H          3.71290        0.20735        0.85836
H          2.55994       -0.06504        2.16511
H          0.93638        1.83970        1.41585
H          1.89267        2.19032       -0.00698
H          0.59771        5.42573        2.56312
H          1.61236        4.18137        3.32701
H         -0.03737        3.78402        2.80922
H          2.23630        4.57442        0.87345
H          0.59548        4.14329        0.41364
