13
1-NITROPROPANE.gamout	Energy:    -323.2512556
N          1.08534        0.01678       -0.05138
O          1.29410       -1.18347       -0.11719
O          1.92325        0.86181        0.22014
C         -0.31233        0.50058       -0.35569
C         -1.38408       -0.34730        0.32020
C         -2.79097        0.15952       -0.01094
H         -0.33371        1.54942       -0.04148
H         -0.39456        0.45294       -1.45143
H         -1.26804       -1.39122        0.00011
H         -1.22300       -0.32514        1.40911
H         -2.93605        1.19723        0.32533
H         -2.98470        0.12415       -1.09378
H         -3.54837       -0.46234        0.48525
