16
1-NITROBUTANE.gamout	Energy:    -362.5101072
C         52.00387        0.02647       -0.16540
N         53.33834        0.72011       -0.02176
C         50.82931        0.96455        0.08522
O         54.20508        0.14112        0.61363
O         53.47301        1.80380       -0.56607
C         49.48655        0.24600       -0.09912
C         48.28597        1.16154        0.14966
H         51.99602       -0.35742       -1.19570
H         52.03597       -0.81546        0.53348
H         50.89975        1.36703        1.10858
H         50.90022        1.81942       -0.60180
H         49.43022       -0.16327       -1.12177
H         49.43657       -0.61893        0.58290
H         47.33997        0.61950        0.01076
H         48.29700        1.56113        1.17501
H         48.28979        2.01636       -0.54309
