30
1-NONANOL.gamout	Energy:    -429.6578560
C          4.40510       -0.51719        0.00000
C          3.15429        0.34949        0.00000
C          1.85821       -0.46556        0.00000
C          0.59507        0.40146       -0.00000
C         -0.70521       -0.40719       -0.00000
C         -1.96892        0.45821       -0.00000
C         -3.27010       -0.34921       -0.00000
C         -4.53296        0.51862        0.00000
C         -5.83265       -0.28831       -0.00000
O          5.54666        0.33291       -0.00000
H          4.40778       -1.17261        0.89116
H          4.40778       -1.17262       -0.89116
H          3.18790        1.00820        0.88288
H          3.18790        1.00819       -0.88288
H          1.83932       -1.12931       -0.88195
H          1.83932       -1.12931        0.88195
H          0.61078        1.06573        0.88128
H          0.61078        1.06573       -0.88128
H         -0.72024       -1.07190       -0.88131
H         -0.72024       -1.07190        0.88131
H         -1.95307        1.12291        0.88126
H         -1.95307        1.12292       -0.88126
H         -3.28615       -1.01392       -0.88153
H         -3.28615       -1.01393        0.88153
H         -4.51238        1.18305        0.88045
H         -4.51238        1.18305       -0.88044
H         -5.89873       -0.93564       -0.88823
H         -5.89873       -0.93565        0.88823
H         -6.71364        0.37004        0.00000
H          6.35103       -0.19549       -0.00000
