25
1-OCTANAL.gamout	Energy:    -389.1934458
C          4.64740        2.57679        2.22266
C          4.11814        3.79754        1.46382
C          2.75769        4.28738        1.96884
C          6.00538        2.08313        1.71588
C          2.23452        5.51046        1.19417
C          6.53806        0.86084        2.47128
C          0.90823        5.99309        1.72378
C          7.89385        0.37122        1.95972
O         -0.11121        6.06643        1.07899
H          4.72512        2.82081        3.29640
H          3.91127        1.75764        2.15002
H          4.03954        3.55390        0.39068
H          4.85146        4.61928        1.53648
H          2.83349        4.53470        3.04136
H          2.02225        3.46974        1.89153
H          5.92592        1.84014        0.64186
H          6.74151        2.90290        1.78702
H          2.12672        5.29032        0.12251
H          2.95612        6.34071        1.30381
H          5.79943        0.04464        2.39998
H          6.61478        1.10617        3.54409
H          0.90823        6.28516        2.80615
H          8.24478       -0.50516        2.52360
H          7.83745        0.08552        0.89792
H          8.65989        1.15678        2.05135
