22
1-OCTYNE.gamout	Energy:    -312.7891200
C          5.46558        1.45581        0.79136
C          4.09806        0.88876        1.19538
C          3.08210        1.92933        1.68121
C          6.30108        1.95318        1.99054
C          1.72720        1.32103        2.06064
C          7.61983        2.46479        1.61633
C          0.69841        2.35602        2.52009
C          8.71022        2.88962        1.30108
H          6.04360        0.68230        0.26428
H          5.33471        2.28504        0.07785
H          3.67062        0.35374        0.33172
H          4.24040        0.12752        1.98227
H          3.48025        2.47633        2.55220
H          2.93506        2.68569        0.89067
H          5.75465        2.74432        2.52856
H          6.42881        1.12603        2.70995
H          1.32843        0.76230        1.19703
H          1.87901        0.57464        2.85841
H          0.50399        3.09770        1.73023
H         -0.25927        1.88187        2.77868
H          1.05237        2.90200        3.40841
H          9.67469        3.26643        1.02321
