27
1-OCTANOL.gamout	Energy:    -390.3991495
C          4.00423        3.20521        1.52080
C          5.26367        3.17980        2.38994
C          6.10191        1.90926        2.21327
C          3.15787        4.47103        1.68827
C          7.36057        1.88082        3.08354
C          1.89913        4.48486        0.81603
C          8.18268        0.61404        2.89692
C          1.04982        5.74712        0.97926
O          9.32421        0.68157        3.74464
H          4.29254        3.09951        0.46029
H          3.38448        2.32166        1.75427
H          5.88672        4.06100        2.15814
H          4.97703        3.28215        3.45088
H          6.38552        1.81028        1.15086
H          5.47459        1.03014        2.44310
H          2.86743        4.57810        2.74815
H          3.77540        5.35562        1.45269
H          7.08720        1.96638        4.14778
H          8.00030        2.74874        2.85491
H          2.19307        4.37362       -0.24154
H          1.28794        3.59754        1.05368
H          8.48913        0.51878        1.83821
H          7.56704       -0.27166        3.14283
H          1.62285        6.64867        0.71247
H          0.15767        5.71493        0.33723
H          0.71040        5.86566        2.01997
H          9.85803       -0.11258        3.64089
