27
1-OCTANETHIOL.gamout	Energy:    -713.2875336
C         85.98696       10.03125        0.00009
C         84.70047        9.20030       -0.00010
C         84.94908        7.68887        0.00011
C         85.74465       11.54331       -0.00011
C         83.65758        6.86223       -0.00011
C         87.03424       12.37097        0.00009
C         83.92392        5.35758        0.00011
C         86.79230       13.88173       -0.00009
S         82.32030        4.43983       -0.00030
H         86.59339        9.76032        0.88181
H         86.59383        9.76013       -0.88127
H         84.09358        9.46941       -0.88175
H         84.09324        9.46957        0.88126
H         85.55491        7.42025        0.88259
H         85.55542        7.42003       -0.88195
H         85.13841       11.81556       -0.88176
H         85.13802       11.81573        0.88121
H         83.05356        7.12615       -0.88358
H         83.05313        7.12635        0.88302
H         87.63798       12.09540        0.88127
H         87.63835       12.09526       -0.88078
H         84.49774        5.06995        0.89195
H         84.49834        5.06978       -0.89128
H         87.73986       14.44009        0.00004
H         86.22076       14.19249       -0.88831
H         86.22038       14.19266        0.88783
H         82.83651        3.18927       -0.00008
