18
1-PENTANETHIOL.gamout	Energy:    -595.5123839
C          4.41941        1.41241        1.72930
C          2.99614        1.93553        1.49950
C          2.04376        0.86736        0.95086
C          5.36804        2.48303        2.26405
C          0.61994        1.37751        0.72087
S          7.07036        1.88255        2.62982
H          4.81936        1.01554        0.78122
H          4.39773        0.56663        2.43437
H          3.02358        2.79049        0.80152
H          2.59240        2.32923        2.44859
H          2.02120        0.01408        1.64932
H          2.45097        0.47550        0.00368
H          5.00925        2.87081        3.22892
H          5.43006        3.33766        1.57538
H          0.17291        1.74461        1.65760
H          0.60673        2.20843       -0.00143
H         -0.03058        0.58255        0.32864
H          7.38232        1.49050        1.37220
