22
1-PROPENYLCYCLOPENTANE.gamout	Energy:    -312.8357195
C         -3.01254       -1.34373        1.00206
C         -4.09610       -0.73730        0.07576
C         -1.84989       -0.32130        0.99212
C         -3.97517        0.76823        0.36110
C         -2.45680        1.01167        0.46360
H         -3.43140       -1.44343        2.01576
H         -2.70282       -2.34852        0.68129
H         -1.41833       -0.20246        1.99564
H         -1.03240       -0.65971        0.33981
H         -4.45778        1.39048       -0.40541
H         -4.46393        0.99290        1.32300
H         -2.21601        1.86863        1.10751
H         -2.05029        1.24521       -0.53195
C         -5.45266       -1.36958        0.22978
H         -3.76578       -0.91116       -0.96763
C         -6.60678       -0.74435        0.49363
C         -7.94201       -1.41604        0.63883
H         -8.37973       -1.22125        1.63210
H         -7.86601       -2.50453        0.50581
H         -8.66306       -1.02956       -0.10060
H         -5.47316       -2.45929        0.10046
H         -6.60691        0.34422        0.61392
