27
1-PROPYLNAPHTHALENE.gamout	Energy:    -503.1621302
C          1.54058        2.90059        4.83106
C          1.09525        1.74178        5.43279
C          2.93036        3.20509        4.74142
C          2.01755        0.81817        5.98297
C          3.36883        1.08052        5.92053
C          3.86277        2.26667        5.30799
C          5.25669        2.54375        5.24976
C          3.42674        4.40596        4.12397
C          4.79374        4.62676        4.10623
C          2.48874        5.41160        3.48987
C          5.71133        3.70233        4.66281
C          3.03701        4.92930        1.01429
C          1.95689        5.01605        2.09400
H          0.81018        3.59473        4.41933
H          0.02481        1.53600        5.48771
H          1.65677       -0.09625        6.45684
H          4.08574        0.37550        6.34657
H          5.95632        1.82583        5.68155
H          5.17823        5.54121        3.65051
H          1.63236        5.59687        4.15699
H          3.01605        6.37397        3.40224
H          6.78098        3.91632        4.62444
H          2.59924        4.66134        0.04202
H          3.79405        4.17179        1.26221
H          3.55492        5.89381        0.89444
H          1.20201        5.76184        1.79597
H          1.43001        4.05188        2.15985
