17
1-THIAINDAN.gamout	Energy:    -707.2881302
S         -1.82430        1.42931       -0.20287
C         -1.61285       -1.27913       -0.21158
C         -0.22283       -0.69949       -0.06776
C         -2.60175       -0.19235        0.23754
C         -0.19851        0.70773       -0.09188
C          0.97905       -1.40151        0.02298
C          1.00669        1.41173       -0.03985
C          2.19455       -0.70651        0.08175
C          2.20444        0.69148        0.04555
H         -1.79164       -1.53408       -1.27084
H         -1.74600       -2.20213        0.37177
H         -3.57488       -0.26289       -0.26253
H         -2.75352       -0.21682        1.32596
H          0.97098       -2.49375        0.04460
H          1.01743        2.50243       -0.05880
H          3.13329       -1.25748        0.15723
H          3.15236        1.23088        0.09057
