32
10-UNDECENOATE-1.gamout	Energy:    -580.3592810
O          5.78508       -4.54870       -0.00010
O          6.01573       -2.29672       -0.00113
C         -0.38683       -0.23764        0.00141
C          1.14475       -0.30620       -0.00082
C         -0.95633        1.18636        0.00143
C          1.70836       -1.73387       -0.00038
C         -2.48639        1.24009        0.00469
C          3.24098       -1.80911       -0.00107
C         -3.05897        2.66286        0.00280
C          3.79505       -3.23479       -0.00052
C         -4.57113        2.71634       -0.00087
C          5.35952       -3.36714       -0.00067
C         -5.30447        3.83364        0.00145
H         -0.77077       -0.78083        0.88339
H         -0.77357       -0.78226       -0.87845
H          1.52820        0.23707       -0.88257
H          1.53083        0.23843        0.87900
H         -0.57737        1.73142       -0.88121
H         -0.57423        1.73368        0.88119
H          1.31537       -2.27392       -0.88142
H          1.31604       -2.27321        0.88136
H         -2.87036        0.69538       -0.87584
H         -2.86901        0.69810        0.88688
H          3.63999       -1.27110       -0.87634
H          3.64006       -1.27066        0.87415
H         -2.67888        3.20862       -0.87877
H         -2.67469        3.21449        0.87831
H          3.42364       -3.79327       -0.87839
H          3.42534       -3.79202        0.87878
H         -5.08770        1.74939       -0.01580
H         -4.83253        4.82047        0.01521
H         -6.39572        3.80540       -0.01569
