32
2,2,3,5-TETRAMETHYLHEXANE.gamout	Energy:    -393.7743911
C          1.66910        0.17000       -1.18094
C          2.46789        1.24577       -0.43425
C          3.56621        0.59801        0.43258
C          3.01316        2.29507       -1.41062
C          4.33278        1.56746        1.37304
C          4.32636        1.11725        2.87733
C          5.73874        1.85502        0.82151
C          4.96962       -0.26983        3.06915
C          5.09314        2.14179        3.73903
C          2.86974        1.08309        3.38759
H          1.23347       -0.55911       -0.48181
H          0.84783        0.61401       -1.76258
H          2.31336       -0.38283       -1.88371
H          1.77308        1.75866        0.25564
H          3.08822       -0.20092        1.01467
H          4.27997        0.08203       -0.23239
H          3.54027        3.10903       -0.89416
H          2.19811        2.75026       -1.99250
H          3.71596        1.83645       -2.12512
H          3.78848        2.52798        1.36701
H          6.24635        2.65873        1.36945
H          5.68043        2.16330       -0.23071
H          6.37676        0.95966        0.86009
H          4.94928       -0.55475        4.13147
H          4.43923       -1.05236        2.50927
H          6.02056       -0.28194        2.74794
H          4.97446        1.90931        4.80735
H          4.71292        3.16214        3.57665
H          6.16957        2.14215        3.52334
H          2.40308        2.07453        3.29017
H          2.24786        0.36191        2.84121
H          2.83898        0.80095        4.45020
