32
2,2,4,5-TETRAMETHYLHEXANE.gamout	Energy:    -393.7753734
C          0.78971        0.97338        1.10200
C          1.91378        1.31503        0.11273
C          2.84581        0.10129       -0.03112
C          1.38826        1.80479       -1.26820
C          0.24835        2.82697       -1.12460
C          2.53137        2.39092       -2.13964
C          2.58330        1.99254       -3.64176
C          3.72448        2.79178       -4.30176
C          2.88344        0.48831       -3.79331
C          1.26581        2.32255       -4.36763
H          1.20741        0.56525        2.03360
H          0.18584        1.84927        1.36986
H          0.11521        0.21033        0.68069
H          2.49881        2.14710        0.54741
H          3.68462        0.28942       -0.71248
H          3.26897       -0.18344        0.94296
H          2.28834       -0.76617       -0.41860
H          0.97473        0.91642       -1.77514
H         -0.04145        3.23839       -2.09896
H         -0.65151        2.38749       -0.67561
H          0.56501        3.67192       -0.49219
H          2.48360        3.49076       -2.08132
H          3.50581        2.12286       -1.70635
H          3.82802        2.52739       -5.36462
H          3.53722        3.87432       -4.24123
H          4.68795        2.58895       -3.81041
H          2.94665        0.21193       -4.85599
H          2.10176       -0.13434       -3.33706
H          3.84157        0.22498       -3.32217
H          1.02772        3.39422       -4.29834
H          1.34246        2.06804       -5.43511
H          0.41719        1.75820       -3.95719
