32
2,2,3,3,4-PENTAMETHYLPENTANE.gamout	Energy:    -393.7579669
C          0.54432        3.56811        0.04788
C          1.73122        4.54015       -0.10719
C          3.19160        3.92551       -0.01665
C          1.44447        5.48615       -1.28593
C          3.74388        3.15199       -1.30631
C          4.13756        5.09938        0.33507
C          3.21153        2.98515        1.21285
C          2.70061        2.18687       -1.90435
C          4.98340        2.29858       -0.93856
C          4.20356        4.11067       -2.43030
H          0.64467        2.90720        0.91679
H         -0.37707        4.15157        0.19320
H          0.38532        2.94029       -0.83617
H          1.69201        5.17572        0.79418
H          2.23403        6.23221       -1.43483
H          0.51034        6.03302       -1.09246
H          1.30403        4.94136       -2.22981
H          5.18411        4.77420        0.39587
H          3.87093        5.51536        1.31749
H          4.08986        5.92158       -0.38887
H          2.69426        3.45929        2.05895
H          2.72459        2.01955        1.02801
H          4.23826        2.78080        1.53954
H          3.16942        1.56946       -2.68478
H          1.86582        2.71934       -2.37552
H          2.28903        1.50082       -1.15298
H          5.42207        1.87927       -1.85527
H          5.76813        2.88697       -0.44438
H          4.72998        1.45354       -0.28633
H          3.41222        4.77977       -2.77992
H          5.05598        4.72643       -2.11610
H          4.53449        3.51941       -3.29642
