29
2,2,3,3-TETRAMETHYLPENTANE.gamout	Energy:    -354.5109712
C          1.97019        2.17251        2.44653
C          2.90133        3.42372        2.09638
C          4.26014        3.30341        2.85009
C          3.18267        3.48349        0.57915
C          2.20495        4.74197        2.49915
C          1.41498        2.27186        3.88491
C          0.76198        2.08816        1.48724
C          2.74423        0.83988        2.33476
C          5.16323        4.54189        2.84237
H          4.07020        3.03190        3.89893
H          4.82553        2.46467        2.41843
H          2.27582        3.71305        0.00539
H          3.90965        4.27444        0.35414
H          3.59692        2.54010        0.19808
H          2.74556        5.60614        2.09170
H          1.18026        4.79548        2.10973
H          2.15771        4.86953        3.58881
H          2.21033        2.39454        4.63230
H          0.71040        3.10559        4.00046
H          0.87065        1.35032        4.13655
H          0.19261        3.02635        1.44873
H          1.06498        1.83077        0.46411
H          0.07222        1.30337        1.82920
H          2.05087       -0.00388        2.45973
H          3.51437        0.74336        3.11055
H          3.22905        0.72048        1.35632
H          4.71256        5.38511        3.38291
H          6.11964        4.31359        3.33425
H          5.39680        4.88153        1.82332
