32
2,2,3-TRIMETHYLHEPTANE.gamout	Energy:    -393.7741578
C         99.10133       54.11430        1.38581
C         97.92546       54.12568        0.40859
C         97.07741       55.39878        0.48316
C         95.89316       55.39592       -0.48909
C         94.99765       56.66563       -0.43729
C         95.21462       57.64991       -1.64194
C         93.52810       56.26210       -0.23306
C         96.70738       58.02055       -1.75448
C         94.75024       57.03347       -2.97747
C         94.42880       58.95538       -1.40045
H         99.68629       53.18661        1.30358
H         99.78406       54.95765        1.19717
H         98.75180       54.19829        2.42672
H         97.27867       53.25213        0.59951
H         98.30085       54.00465       -0.62201
H         97.72150       56.27320        0.29486
H         96.69426       55.52283        1.51131
H         95.27529       54.51189       -0.26366
H         96.26746       55.22910       -1.51022
H         95.29203       57.23514        0.46125
H         92.86130       57.12788       -0.13410
H         93.42687       55.66611        0.68560
H         93.16024       55.64191       -1.06341
H         96.85997       58.74664       -2.56596
H         97.07196       58.48084       -0.82392
H         97.33984       57.15004       -1.97295
H         94.94553       57.72983       -3.80622
H         93.67297       56.81838       -2.97756
H         95.28169       56.09843       -3.20162
H         94.69426       59.40901       -0.43320
H         94.65545       59.69154       -2.18575
H         93.34298       58.79376       -1.41093
