28
2,2,4-TRIMETHYL-1,3-PENTANEDIOL.gamout	Energy:    -465.5288476
O          0.87166       -2.30696       -2.73739
O          3.08573       -0.59215        1.27692
C          2.06681       -1.36273       -0.78357
C          0.82473       -2.16092       -1.31851
C         -0.60046       -1.67398       -0.96400
C          1.88538       -1.12709        0.72663
C          3.31061       -2.25604       -0.99633
C          2.29534       -0.02429       -1.51065
C         -1.02711       -0.36528       -1.64734
C         -1.61508       -2.78861       -1.27354
H          0.91085       -3.16406       -0.86174
H         -0.61992       -1.51907        0.12600
H          1.63390       -2.08284        1.22441
H          1.05198       -0.42687        0.89672
H          4.20399       -1.77902       -0.57754
H          3.18972       -3.23515       -0.50856
H          3.50381       -2.42349       -2.06663
H          1.54034        0.72681       -1.25071
H          2.26784       -0.16673       -2.59798
H          3.27486        0.38939       -1.23960
H         -0.49503        0.50870       -1.25394
H         -2.10108       -0.19217       -1.48962
H         -0.84781       -0.41503       -2.72933
H         -1.67983       -2.97034       -2.35495
H         -1.33459       -3.73460       -0.78695
H         -2.61540       -2.50931       -0.91402
H          1.62521       -2.85105       -2.98545
H          2.92431       -0.29407        2.17715
