29
2,2,3,4-TETRAMETHYLPENTANE.gamout	Energy:    -354.5119724
C          2.36555        2.89055        1.50678
C          3.73207        3.26161        2.20439
C          1.71340        1.52927        1.90737
C          1.34722        4.04357        1.53520
C          3.57154        3.86712        3.61441
C          4.65018        2.02592        2.29719
C          4.45561        4.30329        1.31972
C          0.71667        1.05734        0.83296
C          1.04251        1.48733        3.28976
H          2.64491        2.74796        0.44852
H          2.51863        0.78145        1.91355
H          0.47158        3.80730        0.91739
H          0.98564        4.25098        2.55120
H          1.77468        4.97384        1.14087
H          3.10833        3.16854        4.32097
H          4.55913        4.13410        4.01865
H          2.96690        4.78343        3.60071
H          5.65675        2.32534        2.62251
H          4.28142        1.28644        3.02023
H          4.75077        1.52742        1.32133
H          4.64003        3.90545        0.31072
H          3.88093        5.23299        1.21446
H          5.42914        4.56999        1.75653
H          1.17720        1.04844       -0.16583
H          0.37233        0.03623        1.05162
H         -0.17608        1.69779        0.78842
H          0.20910        2.20147        3.35570
H          0.63007        0.48538        3.47754
H          1.73994        1.71057        4.10550
