26
2,2,4-TRIMETHYLPENTANE.gamout	Energy:    -315.2610595
C          3.43983        2.49468        1.44641
C          2.04253        2.10569        2.00443
C          4.67904        2.28497        2.35287
C          1.67764        3.00361        3.20308
C          1.98385        0.62807        2.43487
C          1.01075        2.33579        0.88186
C          5.37455        0.93809        2.10085
C          5.68134        3.43598        2.17516
H          3.59898        1.95515        0.49782
H          3.38011        3.55996        1.17147
H          4.35095        2.30189        3.40472
H          1.71844        4.06778        2.92669
H          0.65832        2.78762        3.55580
H          2.35823        2.84990        4.05212
H          2.65023        0.42011        3.28330
H          2.26654       -0.03926        1.60758
H          0.96372        0.35839        2.74614
H          1.23927        1.71657        0.00167
H         -0.00391        2.07923        1.22072
H          1.00197        3.38802        0.56045
H          5.75969        0.89257        1.06975
H          4.69771        0.08627        2.24083
H          6.22896        0.80325        2.78111
H          6.57280        3.29277        2.80361
H          6.01858        3.50111        1.12841
H          5.22997        4.40269        2.44210
