26
2,2,3-TRIMETHYLPENTANE.gamout	Energy:    -315.2584712
C          3.22081        2.01363        2.63697
C          1.82367        1.80960        1.94525
C          4.15873        2.97202        1.87004
C          3.94973        0.69585        2.95370
C          1.95220        1.06899        0.59946
C          1.14551        3.17633        1.70778
C          0.89873        0.99591        2.87546
C          5.41228        3.39282        2.64652
H          2.99512        2.50096        3.60359
H          4.46715        2.50102        0.92230
H          3.61158        3.88345        1.59603
H          4.34108        0.22438        2.03976
H          4.80338        0.87499        3.61970
H          3.30156       -0.03099        3.45711
H          2.35607        0.05567        0.73039
H          0.96654        0.97065        0.12102
H          2.60520        1.60628       -0.10213
H          0.09631        3.03451        1.41159
H          1.15499        3.78722        2.62308
H          1.63155        3.75191        0.90946
H          0.77961        1.49353        3.84981
H         -0.10064        0.89757        2.42708
H          1.27345       -0.01950        3.05610
H          6.08619        2.54839        2.84515
H          5.98512        4.13974        2.07864
H          5.14314        3.84411        3.61411
