32
2,2,3,4,4-PENTAMETHYLPENTANE.gamout	Energy:    -393.7606842
C         -0.20034       38.52210        0.56049
C          1.17857       38.13386       -0.01130
C          2.28770       39.26143        0.13450
C          1.64780       36.91101        0.81664
C          0.97396       37.67259       -1.47194
C          1.92732       40.78367       -0.13055
C          3.55645       38.85238       -0.64644
C          1.24822       41.03247       -1.49187
C          1.04147       41.37161        0.99310
C          3.23132       41.62023       -0.10387
H         -0.85970       37.64265        0.53762
H         -0.69491       39.30858       -0.02076
H         -0.13049       38.85201        1.60534
H          2.56224       39.23768        1.20271
H          2.61362       36.51485        0.48000
H          0.91553       36.09436        0.73914
H          1.74368       37.17303        1.88065
H          0.21862       36.87387       -1.50608
H          0.62084       38.48365       -2.11897
H          1.89267       37.26644       -1.91317
H          4.44642       39.36467       -0.26591
H          3.75708       37.77918       -0.56377
H          3.47197       39.08468       -1.71724
H          1.14665       42.11373       -1.66619
H          1.83726       40.62386       -2.32424
H          0.24157       40.60044       -1.54436
H          0.96157       42.46148        0.86995
H          1.48485       41.18425        1.98217
H          0.02282       40.97718        0.99963
H          3.80625       41.44376        0.81749
H          3.88601       41.41328       -0.95918
H          2.98490       42.69060       -0.13784
