9
2,2,2-TRIFLUOROETHANOL.gamout	Energy:    -452.2734793
F         -0.44021       -0.77503        1.08473
C         -0.35091        0.01122       -0.00000
C          0.91812        0.85190       -0.00001
O          2.02299       -0.01429        0.00001
F         -0.44022       -0.77503       -1.08473
F         -1.42542        0.83228        0.00000
H          0.87533        1.49159       -0.89814
H          0.87531        1.49162        0.89810
H          2.84321        0.48935        0.00003
