29
2,2,4-TRIMETHYLHEXANE.gamout	Energy:    -354.5177385
C          3.97023        2.62476        2.32461
C          5.29299        3.35497        1.95852
C          3.19538        1.93109        1.17405
C          4.99435        4.56920        1.05722
C          5.93937        3.85161        3.26634
C          6.28327        2.41626        1.24353
C          1.67888        2.22614        1.22660
C          3.47399        0.42113        1.10666
C          0.94138        1.72060        2.47099
H          4.18954        1.88636        3.11307
H          3.31964        3.37543        2.80088
H          3.54317        2.36198        0.22194
H          5.91869        5.11422        0.81416
H          4.53115        4.26921        0.10695
H          4.31240        5.27336        1.55684
H          5.26086        4.52046        3.81679
H          6.19194        3.00921        3.92720
H          6.86579        4.40801        3.06062
H          6.52156        1.54201        1.86655
H          5.88725        2.05566        0.28455
H          7.22527        2.94304        1.03117
H          1.53527        3.31579        1.14092
H          1.20956        1.78823        0.33037
H          4.54193        0.21391        0.96128
H          3.17079       -0.08304        2.03625
H          2.92451       -0.04641        0.27583
H          0.99797        0.62652        2.56232
H          1.35238        2.15572        3.39384
H         -0.12358        1.99074        2.42519
