24
2,2-DIMETHYL-TRANS-3-HEXENE.gamout	Energy:    -314.0414620
C          3.38983        2.11512        2.59420
C          1.99157        2.13256        1.99966
C          4.45892        2.82443        2.21462
C          1.86682        3.10738        0.81827
C          1.65469        0.70148        1.52163
C          0.99710        2.54341        3.10970
C          5.82050        2.74218        2.85075
C          6.91785        2.28805        1.87607
H          3.50796        1.42561        3.44024
H          4.37360        3.52057        1.37354
H          0.84432        3.08951        0.41564
H          2.08690        4.13993        1.12491
H          2.55217        2.84001        0.00130
H          2.33873        0.38400        0.72188
H          0.62505        0.65163        1.13544
H          1.73935       -0.02237        2.34573
H         -0.03771        2.51299        2.73547
H          1.06162        1.86373        3.97243
H          1.20418        3.56266        3.46539
H          6.09136        3.73613        3.24905
H          5.78233        2.06195        3.71589
H          6.98247        2.96480        1.01019
H          7.90198        2.27623        2.36735
H          6.71113        1.27719        1.49501
