29
2,2-DIMETHYL-3-ETHYLPENTANE.gamout	Energy:    -354.5136546
C          3.48770        2.14196        2.59632
C          1.92156        2.17421        2.72216
C          4.07796        3.33144        1.78566
C          4.20917        2.00931        3.95572
C          1.28041        2.34044        1.32921
C          1.44513        3.32191        3.63418
C          1.41332        0.83479        3.29801
C          4.51217        2.98429        0.35833
C          5.65013        1.50423        3.83691
H          3.71243        1.21958        2.03152
H          4.95123        3.73615        2.31821
H          3.35741        4.16131        1.75281
H          3.66029        1.32257        4.61388
H          4.20648        2.98661        4.46544
H          0.18398        2.30796        1.40864
H          1.58767        1.52922        0.65301
H          1.54211        3.29510        0.85410
H          1.81262        3.20590        4.66287
H          0.34619        3.34398        3.67845
H          1.77819        4.30282        3.26678
H          0.31368        0.81369        3.30410
H          1.74581        0.66619        4.33054
H          1.75845       -0.01382        2.68837
H          4.92350        3.86425       -0.15776
H          3.67279        2.60750       -0.24261
H          5.29005        2.20580        0.36450
H          5.67833        0.49952        3.38760
H          6.13085        1.44145        4.82394
H          6.26995        2.16380        3.21196
