29
2,2-DIMETHYLHEPTANE.gamout	Energy:    -354.5195558
C          4.50476        3.82015        1.10932
C          3.22169        3.57492        1.93278
C          2.65232        2.15438        1.82461
C          1.37414        1.93921        2.64048
C          0.79764        0.52874        2.50335
C          5.86985        3.70492        1.84268
C          6.02432        2.33997        2.53894
C          6.01539        4.83129        2.88419
C          6.98774        3.85855        0.79311
H          4.46165        4.82868        0.66836
H          4.51222        3.12445        0.25419
H          2.44236        4.27748        1.59617
H          3.39299        3.81898        2.99329
H          2.44444        1.93656        0.76239
H          3.40873        1.41928        2.14056
H          0.61739        2.67881        2.32834
H          1.58326        2.14997        3.70320
H          0.54833        0.30357        1.45477
H         -0.11915        0.40665        3.09836
H          1.51997       -0.22998        2.84263
H          7.01686        2.25323        3.00503
H          5.91793        1.51251        1.82233
H          5.27598        2.20170        3.33156
H          5.24497        4.77482        3.66610
H          5.93789        5.81997        2.40727
H          6.99403        4.77595        3.38396
H          7.98051        3.81722        1.26554
H          6.90823        4.82038        0.26420
H          6.94022        3.05715        0.04044
