24
2,2-DIMETHYL-CIS-3-HEXENE.gamout	Energy:    -314.0341299
C          3.07320        2.17374        1.02073
C          2.10632        2.35476        2.19620
C          4.41220        2.08383        1.00383
C          2.21039        1.17365        3.18747
C          2.36814        3.68911        2.93091
C          0.66995        2.38731        1.63184
C          5.40344        2.11453        2.13695
C          6.27737        0.85154        2.19159
H          2.58807        2.11247        0.04136
H          4.87146        1.95535        0.01614
H          1.46816        1.28266        3.99364
H          2.01997        0.21871        2.67745
H          3.20174        1.11267        3.65336
H          1.63364        3.82985        3.73918
H          3.36939        3.72415        3.37772
H          2.28017        4.53906        2.23942
H         -0.06608        2.51647        2.43845
H          0.43257        1.45211        1.10347
H          0.54294        3.21801        0.92204
H          4.90128        2.25570        3.10095
H          6.06017        2.99262        2.00193
H          7.02670        0.92434        2.99323
H          5.66346       -0.04252        2.37498
H          6.81265        0.69927        1.24203
