26
2,2-DIMETHYLHEXANE.gamout	Energy:    -315.2629815
C          3.42464        2.62769        2.43554
C          2.06339        1.88238        2.42679
C          4.64633        1.85660        1.92112
C          0.99271        2.84540        2.97562
C          2.11320        0.63321        3.32719
C          1.67406        1.47124        0.99362
C          5.96821        2.63294        2.03448
C          6.06161        3.87443        1.14248
H          3.30268        3.55153        1.84749
H          3.62866        2.95315        3.47062
H          4.75154        0.91655        2.48403
H          4.49505        1.56957        0.86752
H          0.91732        3.75149        2.35583
H          0.00238        2.36660        2.99262
H          1.23220        3.15964        4.00263
H          2.41469        0.89530        4.35275
H          1.12455        0.15420        3.38199
H          2.82067       -0.11768        2.94944
H          1.64832        2.34525        0.32557
H          0.67589        1.00910        0.97950
H          2.37948        0.74335        0.56988
H          6.79499        1.95016        1.78111
H          6.12646        2.92325        3.08713
H          5.90310        3.61200        0.08454
H          5.31371        4.63359        1.41346
H          7.05195        4.34549        1.22466
