32
2,2-DIMETHYL-3-ETHYLHEXANE.gamout	Energy:    -393.7728744
C          0.14722       -0.13299       -0.68768
C          0.94882        1.16934       -0.67460
C          2.18169        1.11097        0.23621
C          3.02935        2.41424        0.27412
C          2.86569        3.23797        1.60306
C          4.50037        2.10884       -0.08473
C          3.48710        2.50461        2.80812
C          3.54098        4.61776        1.45412
C          1.36953        3.49018        1.88355
C          4.70256        1.72118       -1.55272
H         -0.72533       -0.06368       -1.35346
H          0.76563       -0.97612       -1.03258
H         -0.22038       -0.38228        0.31990
H          0.29828        1.99968       -0.35922
H          1.27519        1.41316       -1.69909
H          2.81105        0.27207       -0.09893
H          1.86006        0.83328        1.25096
H          2.64455        3.07701       -0.52119
H          5.13303        2.97998        0.13087
H          4.86919        1.29655        0.56215
H          3.33204        3.08460        3.72982
H          3.03460        1.51517        2.96202
H          4.56965        2.36504        2.68488
H          3.34152        5.24082        2.33833
H          3.15475        5.15540        0.57497
H          4.63140        4.54487        1.35165
H          0.89363        4.02172        1.04632
H          0.81323        2.55972        2.05540
H          1.24960        4.11201        2.78235
H          5.75870        1.49882       -1.76230
H          4.11798        0.83122       -1.82663
H          4.39331        2.53959       -2.22071
