20
2,2-DIMETHYLBUTANE.gamout	Energy:    -236.7468095
C          3.21500        1.06189        2.77273
C          2.10132        1.87867        2.06606
C          1.97717        1.36200        0.61957
C          0.74815        1.68658        2.77861
C          2.45941        3.37754        2.03344
C          3.54826        1.45245        4.21540
H          4.13053        1.13676        2.16242
H          2.92217       -0.00092        2.74771
H          2.91877        1.49932        0.06665
H          1.72936        0.28985        0.60039
H          1.18663        1.89977        0.07544
H          0.75536        2.09916        3.79730
H          0.48688        0.61972        2.84856
H         -0.05693        2.19307        2.22566
H          2.47311        3.81424        3.04161
H          3.44896        3.53918        1.57999
H          1.72302        3.94014        1.44054
H          3.94121        2.47689        4.28441
H          2.67018        1.38261        4.87343
H          4.31704        0.78109        4.62436
