18
2,2-DIMETHYL-1-PROPANOL.gamout	Energy:    -272.6247320
C         -0.49345       -0.89675        1.26038
C         -0.45100       -0.01368        0.00001
C          0.83180        0.83624       -0.00001
O          1.97675       -0.00814        0.00001
C         -0.49346       -0.89683       -1.26030
C         -1.65065        0.95144        0.00000
H         -0.46954       -0.28463        2.17489
H         -1.41616       -1.49505        1.28072
H          0.36239       -1.58330        1.29073
H          0.83404        1.48781       -0.89306
H          0.83402        1.48782        0.89303
H          2.77755        0.52516        0.00003
H         -1.41615       -1.49515       -1.28059
H         -0.46954       -0.28480       -2.17486
H          0.36238       -1.58338       -1.29060
H         -1.64563        1.59795        0.89051
H         -1.64563        1.59796       -0.89049
H         -2.59678        0.39135        0.00000
