23
2,2-DIMETHYLPENTANE.gamout	Energy:    -276.0055387
C          3.25924        2.35307        2.11203
C          1.72396        2.19541        1.94927
C          3.76744        3.65331        2.74681
C          1.44944        0.81145        1.33059
C          1.16262        3.28071        1.00965
C          1.01693        2.28121        3.31631
C          5.29534        3.70293        2.84348
H          3.63077        1.50404        2.71153
H          3.72185        2.24080        1.11642
H          3.41734        4.51866        2.16294
H          3.34034        3.76665        3.75498
H          1.83184        0.00631        1.97576
H          0.37046        0.64724        1.19184
H          1.93408        0.71408        0.34755
H          0.08628        3.12990        0.83995
H          1.29121        4.28981        1.42461
H          1.66385        3.25170        0.03025
H          1.13463        3.27230        3.77490
H         -0.06159        2.09437        3.20760
H          1.41828        1.53368        4.01726
H          5.75733        3.63214        1.84700
H          5.63651        4.64013        3.30606
H          5.68217        2.86929        3.44952
