32
2,3,3,4-TETRAMETHYLHEXANE.gamout	Energy:    -393.7686266
C          0.72765       35.95344       -1.54972
C          0.84601       36.38820       -0.08535
C          1.95563       37.43351        0.17440
C          1.72998       38.27645        1.48831
C          3.33455       36.75347        0.11065
C          0.50477       39.24666        1.28427
C          1.46541       37.32538        2.67602
C          2.99561       39.09718        1.81639
C         -0.04269       39.84995        2.58910
C          0.77598       40.38474        0.28530
H         -0.07557       35.21333       -1.67680
H          0.49610       36.81160       -2.19913
H          1.65528       35.49579       -1.92238
H          1.03053       35.50076        0.54146
H         -0.12961       36.78141        0.23222
H          1.92580       38.14630       -0.66507
H          4.15662       37.47931        0.09223
H          3.42469       36.14753       -0.80016
H          3.49510       36.07968        0.96532
H         -0.31109       38.63853        0.86404
H          1.50181       37.86355        3.63177
H          2.22867       36.53734        2.72329
H          0.48409       36.83660        2.60785
H          3.36553       39.65933        0.94822
H          2.79852       39.81881        2.62056
H          3.80959       38.44741        2.16190
H         -0.88063       40.52552        2.36553
H         -0.41640       39.08594        3.28189
H          0.71839       40.44376        3.11731
H         -0.15684       40.92316        0.06459
H          1.17991       40.02918       -0.67100
H          1.48442       41.11818        0.69693
