21
2,3,3-TRIMETHYL-1-BUTENE.gamout	Energy:    -274.7789803
C          3.29379        2.28446        2.06474
C          1.77366        2.18662        1.83508
C          1.29138        3.41114        1.02043
C          1.38539        0.91301        1.06421
C          1.04118        2.16499        3.19867
C          3.80453        3.48287        2.83413
C          4.16496        1.36713        1.61800
H          0.21106        3.33446        0.82745
H          1.46393        4.35595        1.55273
H          1.80700        3.46740        0.05083
H          1.68183        0.00488        1.60751
H          1.84815        0.88320        0.06774
H          0.29590        0.87793        0.92584
H         -0.04261        2.06137        3.04215
H          1.38009        1.31816        3.81247
H          1.20387        3.08796        3.77089
H          3.38702        3.52318        3.85176
H          4.89770        3.45077        2.92267
H          3.53527        4.43108        2.34440
H          3.86589        0.48107        1.06069
H          5.23445        1.48013        1.80358
