26
2,3,3-TRIMETHYLPENTANE.gamout	Energy:    -315.2568787
C          4.27476        1.86755        2.79963
C          2.92235        2.08184        2.02419
C          1.98990        2.97126        2.89634
C          2.25467        0.70925        1.80053
C          3.15404        2.75403        0.65631
C          4.94253        3.16495        3.28706
C          5.31421        1.03408        2.03150
C          0.52802        3.09711        2.45422
H          4.00239        1.28973        3.70090
H          2.41710        3.98331        2.94497
H          2.01004        2.58346        3.92893
H          2.04198        0.21263        2.75981
H          1.30612        0.80909        1.25709
H          2.88966        0.03860        1.20865
H          2.20021        2.92223        0.13853
H          3.65064        3.72920        0.75764
H          3.77078        2.12805       -0.00248
H          5.87626        2.92630        3.81600
H          5.20388        3.82595        2.44751
H          4.31228        3.73234        3.98259
H          5.70253        1.57572        1.15605
H          6.17354        0.81586        2.68166
H          4.91854        0.07162        1.68394
H          0.43615        3.45996        1.42043
H          0.00232        3.81697        3.09780
H         -0.01275        2.14344        2.52517
