29
2,3,4-TRIMETHYLHEXANE.gamout	Energy:    -354.5140860
C          2.04856        1.68964        4.38021
C          3.10844        1.15909        3.36950
C          3.31887        2.05260        2.10524
C          4.42119        0.77262        4.06814
C          2.36171        3.08236        4.96455
C          0.63125        1.62562        3.78765
C          4.45011        3.08795        2.22240
C          3.52905        1.18515        0.85377
C          1.55165        3.43840        6.21556
H          2.07198        0.97762        5.22492
H          2.68213        0.21245        2.99779
H          2.38691        2.61686        1.94494
H          4.23178        0.01448        4.84161
H          4.90718        1.62979        4.55414
H          5.14293        0.34410        3.35851
H          2.18894        3.84658        4.18904
H          3.42983        3.14235        5.21902
H          0.39969        0.60999        3.43446
H          0.51737        2.31284        2.93591
H         -0.13137        1.89501        4.53022
H          4.46010        3.73441        1.33290
H          5.43510        2.60288        2.28311
H          4.34135        3.73511        3.10140
H          4.42788        0.55586        0.94975
H          3.65553        1.80776       -0.04408
H          2.67102        0.51870        0.68406
H          0.47151        3.46860        6.01520
H          1.84048        4.42608        6.60275
H          1.72282        2.70191        7.01549
