24
2,3,4-TRIMETHYL-2-PENTENE.gamout	Energy:    -314.0402450
C          4.48276        2.77502        2.05328
C          3.20164        2.03975        1.65762
C          1.97040        2.59129        1.77163
C          3.42129        0.63714        1.12438
C          5.25827        3.27288        0.81791
C          5.38506        1.92763        2.96994
C          1.70251        4.00147        2.25160
C          0.68759        1.86397        1.43252
H          4.20753        3.66179        2.63663
H          2.60645        0.28977        0.48123
H          4.34412        0.58058        0.52939
H          3.53338       -0.09442        1.94228
H          4.63787        3.94428        0.20787
H          5.57903        2.43722        0.17851
H          6.16266        3.82231        1.12072
H          5.78195        1.03907        2.45813
H          6.24698        2.52097        3.30789
H          4.83794        1.58823        3.86136
H          1.04225        4.52103        1.53731
H          2.59908        4.61562        2.37401
H          1.16387        3.99205        3.21485
H         -0.02230        1.94655        2.27223
H          0.19050        2.32868        0.56337
H          0.81966        0.79933        1.21838
