32
2,3,4,4-TETRAMETHYLHEXANE.gamout	Energy:    -393.7683785
C         -0.12223        1.73060        0.39728
C          0.71592        2.98674        0.65509
C          2.09076        3.09217       -0.06746
C          2.69753        4.50837        0.26989
C          3.02001        1.98986        0.48286
C          1.92422        2.87328       -1.58366
C          1.92435        5.72287       -0.34523
C          4.20956        4.61865        0.01426
C          1.89945        6.90134        0.64211
C          2.43913        6.20658       -1.71214
H         -1.04862        1.77248        0.98784
H         -0.41382        1.64047       -0.65863
H          0.40276        0.80813        0.68170
H          0.90281        3.07428        1.73811
H          0.10370        3.85940        0.38618
H          2.56917        4.59864        1.36189
H          3.97240        1.95032       -0.06165
H          2.55530        1.00017        0.38421
H          3.24400        2.14852        1.54872
H          1.62506        1.83845       -1.79803
H          1.15796        3.53294       -2.01307
H          2.86640        3.05227       -2.11890
H          0.87847        5.41631       -0.48990
H          4.56377        5.63835        0.21844
H          4.78141        3.94909        0.66728
H          4.47711        4.38231       -1.02541
H          1.34881        7.75717        0.22491
H          1.41682        6.61762        1.58868
H          2.91822        7.24801        0.87526
H          1.77398        6.98960       -2.10466
H          2.48271        5.40629       -2.46010
H          3.44375        6.64597       -1.63307
