29
2,3,3-TRIMETHYLHEXANE.gamout	Energy:    -354.5137626
C          4.28466        3.34716        2.12359
C          2.73273        3.35322        2.03940
C          4.89009        2.15767        2.95772
C          4.78600        4.69845        2.67014
C          4.80877        3.22381        0.67425
C          1.90946        3.48732        3.32697
C          4.25425        0.79621        2.63397
C          4.93638        2.35895        4.48269
C          0.41649        3.67249        3.04119
H          2.40236        2.44789        1.50540
H          2.45758        4.19359        1.37905
H          5.94408        2.09974        2.63388
H          4.39951        4.92412        3.67160
H          5.88474        4.71723        2.72769
H          4.47597        5.51807        2.00538
H          5.90692        3.28116        0.64959
H          4.51185        2.27701        0.20267
H          4.41802        4.03928        0.04836
H          2.27161        4.34095        3.91978
H          2.04030        2.59767        3.95984
H          4.83457       -0.01228        3.10104
H          3.22870        0.72607        3.02497
H          4.21804        0.59070        1.55606
H          5.41684        1.48862        4.95352
H          5.51976        3.24306        4.76868
H          3.93718        2.45645        4.92604
H          0.23659        4.58154        2.44670
H          0.01177        2.82026        2.47395
H         -0.16325        3.76116        3.97104
