29
2,3,5-TRIMETHYLHEXANE.gamout	Energy:    -354.5193404
C          3.83537        1.92928        1.92446
C          2.63114        2.58357        2.63306
C          1.52733        3.07107        1.65057
C          2.05106        1.66296        3.71751
C          5.14947        1.88348        2.73117
C          1.95818        4.31935        0.86806
C          1.01614        1.97729        0.70006
C          6.15470        0.93215        2.06749
C          5.76504        3.27802        2.91519
H          4.04075        2.45008        0.97536
H          3.55924        0.89932        1.64603
H          2.98826        3.49237        3.14502
H          0.67627        3.37206        2.28595
H          2.81154        1.38490        4.46029
H          1.65764        0.73006        3.28683
H          1.23005        2.15759        4.25700
H          4.92748        1.47811        3.73314
H          2.27802        5.12376        1.54710
H          2.79274        4.10722        0.18275
H          1.12722        4.70522        0.25958
H          1.78729        1.68407       -0.02809
H          0.14743        2.33687        0.12999
H          0.70569        1.07239        1.24049
H          7.08627        0.86497        2.64825
H          6.41735        1.28172        1.05593
H          5.74133       -0.08286        1.97269
H          6.00513        3.72530        1.93736
H          6.69685        3.22441        3.49664
H          5.08640        3.96513        3.43872
