32
2,3,4,5-TETRAMETHYLHEXANE.gamout	Energy:    -393.7686234
C          0.79686       19.75461       -0.08176
C          1.40627       21.04567        0.49088
C          0.84629       22.37177       -0.11931
C          1.25251       21.05027        2.02064
C          1.60038       22.92348       -1.37215
C         -0.66581       22.30338       -0.38926
C          2.82450       23.83401       -1.05397
C          1.95223       21.85937       -2.42241
C          2.40334       25.15521       -0.39298
C          3.95679       23.17391       -0.25328
H          1.31250       18.87914        0.33914
H         -0.26710       19.66073        0.17922
H          0.87966       19.69175       -1.17277
H          2.48375       21.01237        0.28051
H          0.97140       23.13345        0.66471
H          1.78552       21.89831        2.47510
H          1.65220       20.12569        2.46193
H          0.19362       21.12504        2.31238
H          0.88318       23.60247       -1.86423
H         -1.05763       23.30500       -0.61620
H         -1.22190       21.92344        0.47944
H         -0.90384       21.65430       -1.24454
H          3.24547       24.09843       -2.04012
H          2.39146       22.33512       -3.31102
H          1.06153       21.30932       -2.75409
H          2.67951       21.12547       -2.04880
H          3.26095       25.83876       -0.30613
H          1.62568       25.66658       -0.97931
H          2.01205       24.99917        0.62354
H          4.82133       23.85083       -0.19523
H          4.30485       22.23796       -0.71150
H          3.64819       22.95396        0.77923
