29
2,3,3,4-TETRAMETHYLPENTANE.gamout	Energy:    -354.5059540
C          3.65164        1.95780        2.42148
C          3.43779        3.46906        2.02456
C          2.06143        4.13899        2.40546
C          3.64444        3.58007        0.49583
C          4.55941        4.31963        2.66568
C          3.98868        1.67348        3.89774
C          2.54442        0.99135        1.96920
C          0.85841        3.79884        1.50638
C          1.64174        3.99275        3.87734
H          4.55619        1.67144        1.85643
H          2.24895        5.21540        2.24599
H          4.68285        3.32962        0.23583
H          2.99159        2.90875       -0.07468
H          3.45408        4.60533        0.14506
H          4.56667        5.32809        2.22762
H          4.44287        4.43372        3.74988
H          5.54709        3.87182        2.48236
H          3.14266        1.86598        4.56853
H          4.25355        0.61173        4.00941
H          4.84473        2.25736        4.25739
H          1.63621        1.09713        2.57886
H          2.26307        1.12481        0.91709
H          2.88944       -0.04624        2.08622
H          1.05512        3.99143        0.44453
H          0.53865        2.75455        1.60658
H          0.00232        4.42699        1.79407
H          2.45204        4.22518        4.57940
H          0.81246        4.68094        4.09709
H          1.28257        2.97774        4.09730
