32
2,3,3,5-TETRAMETHYLHEXANE.gamout	Energy:    -393.7714952
C          0.05666       35.87784       -0.11164
C          1.57468       35.84294        0.12396
C          2.22816       37.24350        0.00195
C          1.87716       35.22205        1.49630
C          2.86628       37.64475       -1.36111
C          3.31907       39.14843       -1.25567
C          4.10293       36.75004       -1.59125
C          1.88884       37.44328       -2.53448
C          4.30622       39.58880       -2.34988
C          2.15299       40.14998       -1.20961
H         -0.37267       34.86642       -0.05914
H         -0.43625       36.49041        0.66004
H         -0.20404       36.30130       -1.08980
H          2.01459       35.17680       -0.63531
H          1.47799       37.99217        0.29508
H          3.03110       37.32357        0.75171
H          2.95969       35.10451        1.65184
H          1.41000       34.23168        1.59928
H          1.48961       35.86061        2.30611
H          3.85663       39.22799       -0.29384
H          4.53498       36.89920       -2.58925
H          3.84171       35.68662       -1.51118
H          4.88590       36.95721       -0.84607
H          0.94417       37.98189       -2.38597
H          2.32857       37.79386       -3.47865
H          1.64787       36.38026       -2.66955
H          4.55618       40.65195       -2.22346
H          5.24835       39.02787       -2.31781
H          3.87678       39.47562       -3.35675
H          2.52942       41.15286       -0.96242
H          1.39213       39.89489       -0.46101
H          1.65195       40.22294       -2.18619
