20
2,3-DIMETHYLBUTANE.gamout	Energy:    -236.7450707
C          3.22385        2.34910        1.87951
C          3.80560        3.76117        1.72457
C          4.28888        1.31209        1.49603
C          1.90747        2.16399        1.08561
C          1.32619        0.75198        1.23976
C          0.84182        3.19932        1.47082
H          2.97904        2.20127        2.94800
H          3.13881        4.53494        2.12511
H          3.99195        3.99127        0.66307
H          4.76427        3.84624        2.25658
H          4.51461        1.36576        0.41871
H          3.97583        0.28574        1.72477
H          5.22448        1.50001        2.04190
H          2.15159        2.31289        0.01710
H          1.99277       -0.02125        0.83797
H          0.36731        0.66763        0.70828
H          1.14053        0.52091        2.30115
H          0.61581        3.14296        2.54793
H         -0.09339        3.01200        0.92417
H          1.15434        4.22626        1.24452
