23
2,3-DIMETHYLPENTANE.gamout	Energy:    -276.0015467
C          4.38319        2.63602        2.75785
C          3.28295        2.03111        1.84017
C          1.91961        2.72538        2.04601
C          3.15160        0.51025        2.02083
C          4.62449        4.12945        2.48020
C          5.71877        1.88155        2.65569
C          0.83982        2.36207        1.02069
H          4.02362        2.53910        3.79924
H          3.59639        2.22034        0.79552
H          1.55427        2.49747        3.06290
H          2.05576        3.81471        2.01302
H          2.94295        0.26031        3.07383
H          2.33175        0.10453        1.41495
H          4.06299       -0.02197        1.72128
H          5.44622        4.50989        3.10386
H          4.90652        4.28855        1.42688
H          3.74390        4.74908        2.69052
H          6.08702        1.87794        1.61683
H          6.48446        2.36904        3.27583
H          5.64052        0.83991        2.99099
H          0.58239        1.29405        1.03937
H         -0.08507        2.92367        1.21550
H          1.16986        2.60837       -0.00061
