32
2,3-DIMETHYL-3-ETHYLHEXANE.gamout	Energy:    -393.7674473
C         -0.05741       36.96318        0.16556
C          1.45243       36.94824       -0.08790
C          2.08491       38.33607        0.07173
C          3.63626       38.44172       -0.03695
C          3.98188       39.97459       -0.15872
C          4.22580       37.84140        1.28112
C          4.13925       37.66341       -1.26725
C          5.44187       40.34453        0.14701
C          3.59771       40.59080       -1.51616
C          5.64134       37.24993        1.25340
H         -0.49675       35.96383        0.03486
H         -0.28538       37.29805        1.18941
H         -0.56961       37.64774       -0.52834
H          1.63878       36.56562       -1.10340
H          1.92409       36.22902        0.60037
H          1.79353       38.74525        1.05511
H          1.62014       38.99868       -0.67301
H          3.36580       40.47267        0.61124
H          3.55484       37.03787        1.61640
H          4.16211       38.61385        2.06498
H          3.58523       37.94407       -2.17265
H          5.20439       37.84863       -1.45901
H          4.01693       36.58065       -1.13383
H          5.58269       41.42898        0.03179
H          5.73352       40.08674        1.17180
H          6.14229       39.85357       -0.54494
H          3.68656       41.68563       -1.47036
H          2.56879       40.35902       -1.81793
H          4.27004       40.24368       -2.31471
H          5.91548       36.89476        2.25755
H          6.40683       37.96898        0.93868
H          5.70005       36.38619        0.57711
