14
2,3-DICHLOROBUTANE.gamout	Energy:   -1077.0565180
C          0.50318        1.07308        0.29832
C          2.03108        1.01089        0.33476
C          2.61171       -0.18733        1.06667
Cl         2.75267        1.11928       -1.34347
C         -0.07631        2.30649       -0.37370
Cl        -0.21869       -0.43358       -0.44790
H          0.17405        1.03326        1.34756
H          2.35823        1.94003        0.82478
H          3.70343       -0.10295        1.12980
H          2.20452       -0.22363        2.08959
H          2.35648       -1.12340        0.55596
H         -1.16805        2.32027       -0.26884
H          0.33217        3.21025        0.10567
H          0.17881        2.33173       -1.43978
