24
2,3-DIMETHYL-CIS-3-HEXENE.gamout	Energy:    -314.0375603
C          1.22078       -0.83582       -0.99094
C          2.23124       -0.01055       -0.17384
C          3.10145       -0.86222        0.75825
C          3.98001       -1.80633        0.37401
C          4.33818       -2.29287       -1.00618
C          4.05401       -3.79080       -1.20166
C          2.91331       -0.55790        2.22604
C          3.05635        0.94521       -1.05584
H          0.53779       -0.16936       -1.53960
H          0.61394       -1.47699       -0.33594
H          1.71265       -1.48410       -1.72813
H          1.62648        0.63341        0.48480
H          4.52221       -2.32325        1.17543
H          5.41653       -2.11558       -1.16888
H          3.81971       -1.71804       -1.78156
H          4.58016       -4.39446       -0.44668
H          4.38475       -4.12937       -2.19448
H          2.97890       -4.00207       -1.10583
H          3.13451        0.50153        2.43986
H          3.55514       -1.17842        2.86479
H          1.86450       -0.72224        2.52651
H          3.67197        0.40156       -1.78437
H          3.73012        1.56084       -0.44312
H          2.39391        1.62237       -1.61652
