26
2,3-DIMETHYLHEXANE.gamout	Energy:    -315.2603461
C          1.65217        1.79501        0.11225
C          1.59345        0.31868       -0.31458
C          2.89093       -0.38638        0.11447
C          0.32189       -0.40202        0.21664
C         -0.97441        0.26377       -0.29037
C         -2.27154       -0.24962        0.34913
C         -3.50469        0.54716       -0.08510
C          0.32889       -1.90367       -0.11287
H          2.59599        2.25514       -0.21365
H          0.83614        2.39312       -0.31213
H          1.60212        1.88550        1.20945
H          1.54664        0.28603       -1.41893
H          2.99159       -1.38640       -0.32567
H          3.76807        0.19828       -0.19736
H          2.93685       -0.49202        1.21055
H          0.33579       -0.29889        1.31867
H         -0.92671        1.34654       -0.10660
H         -1.03280        0.14385       -1.38732
H         -2.42869       -1.31069        0.10403
H         -2.17184       -0.20025        1.44683
H         -3.40732        1.60940        0.18744
H         -3.64507        0.49654       -1.17588
H         -4.41915        0.16176        0.38817
H          1.17832       -2.42377        0.34657
H         -0.58091       -2.39765        0.25040
H          0.38321       -2.06332       -1.20210
