21
2,3-DIMETHYL-1-PENTENE.gamout	Energy:    -274.7799469
C          2.08659        2.85870        3.10459
C          2.66654        2.09843        1.90478
C          4.86146        1.88058        3.13111
C          4.17542        1.88467        1.97929
C          4.87198        1.68020        0.65544
C          1.94298        0.74654        1.67734
C          0.46710        0.86835        1.28963
H          2.11975        2.25090        4.02118
H          1.03755        3.12987        2.92844
H          2.64590        3.78581        3.28984
H          2.48391        2.71429        1.00416
H          5.93863        1.70441        3.14504
H          4.38524        2.04752        4.09740
H          4.76689        2.57777        0.02292
H          4.43565        0.84445        0.08534
H          5.94252        1.47836        0.78904
H          2.46907        0.18613        0.89014
H          2.04250        0.14290        2.59460
H         -0.13401        1.32549        2.08821
H          0.03610       -0.12159        1.08105
H          0.34486        1.48177        0.38317
