11
2,3-DIHYDROFURAN.gamout	Energy:    -230.9297954
O          1.21285       -0.04324        0.09638
C         -1.06072        0.75346       -0.02601
C          0.42928        1.17758        0.06401
C         -0.94917       -0.75716       -0.03574
C          0.34318       -1.09252        0.03545
H         -1.54674        1.14225       -0.93579
H         -1.64825        1.12313        0.83029
H          0.76314        1.76253       -0.80436
H          0.66032        1.74405        0.97698
H         -1.78402       -1.45127       -0.09093
H          0.80969       -2.07588        0.05242
