15
2,3-DIMETHYLTHIOPHENE.gamout	Energy:    -631.1592979
C         -5.10583       -1.89481       -2.22844
C         -4.95659       -0.75895       -1.25132
C         -5.97951       -0.16695       -0.53900
C         -3.67712       -0.17376       -0.95238
C         -7.44672       -0.48097       -0.53412
S         -5.36406        1.10512        0.49607
C         -3.73523        0.83604       -0.03314
H         -4.60751       -1.65968       -3.18179
H         -4.64198       -2.81609       -1.84013
H         -6.15568       -2.12297       -2.44918
H         -2.74785       -0.50345       -1.41878
H         -7.70740       -1.12912       -1.38017
H         -7.75358       -0.99986        0.38845
H         -8.05668        0.43134       -0.61561
H         -2.92111        1.44039        0.35892
