24
2,3-DIMETHYL-TRANS-3-HEXENE.gamout	Energy:    -314.0404788
C          0.82730        0.69438       -0.80834
C          2.18139        0.30584       -0.17835
C          3.18000       -0.12648       -1.25307
C          4.15439        0.69028       -1.69325
C          5.18905        0.44003       -2.75780
C          5.07846        1.41722       -3.93947
C          2.96689       -1.53184       -1.76281
C          2.67515        1.41748        0.75470
H          0.08363        0.91246       -0.02685
H          0.42077       -0.10633       -1.44106
H          0.94004        1.59344       -1.43304
H          1.99847       -0.58504        0.45010
H          4.22483        1.68474       -1.24208
H          5.13720       -0.59201       -3.12992
H          6.19134        0.55010       -2.30598
H          4.11384        1.30231       -4.45560
H          5.88295        1.24569       -4.66989
H          5.15027        2.46113       -3.59725
H          1.92276       -1.68745       -2.07718
H          3.16111       -2.26143       -0.95820
H          3.61111       -1.78688       -2.61072
H          2.77575        2.37850        0.22824
H          3.64962        1.16820        1.19752
H          1.95765        1.57231        1.57319
