29
2,3-BENZOFLUORENE.gamout	Energy:    -654.2087942
C          4.64188        4.57667        1.07501
C          3.35600        5.28577        1.16301
C          5.68140        5.55440        0.93878
C          4.94388        3.23002        1.10396
C          3.59595        6.67577        1.08209
C          2.05025        4.80074        1.30347
C          5.07983        6.94624        0.93521
C          6.99544        5.17097        0.83486
C          6.29709        2.80292        0.99857
C          2.53684        7.57947        1.14102
C          0.99213        5.71159        1.36259
C          7.34039        3.78712        0.86199
C          6.65852        1.42541        1.02409
C          1.23161        7.09094        1.28212
C          8.68807        3.34521        0.75782
C          7.97627        1.03256        0.92087
C          9.00253        2.00233        0.78608
H          4.15900        2.47838        1.20732
H          1.85605        3.72861        1.36626
H          5.46776        7.56369        1.76284
H          5.30925        7.48964        0.00329
H          7.79156        5.91182        0.73089
H          2.71738        8.65481        1.07890
H         -0.03041        5.34611        1.47249
H          5.86879        0.67840        1.12783
H          0.39428        7.78926        1.32977
H          9.47719        4.09307        0.65417
H          8.23366       -0.02782        0.94257
H         10.04268        1.68238        0.70489
