24
2,3-DIMETHYL-2-PENTANOL.gamout	Energy:    -351.1431000
C          1.29403        0.07559       -1.52661
C          0.99262        0.17237       -0.02373
C          1.28990        1.59213        0.48834
C         -0.45748       -0.27132        0.33826
C         -1.54158        0.60968       -0.31605
C         -2.94817        0.40095        0.25532
C         -0.69830       -1.76315        0.05741
O          1.84080       -0.74515        0.69170
H          2.34290        0.34837       -1.72047
H          1.13763       -0.94488       -1.89816
H          0.66451        0.76163       -2.11013
H          0.72476        2.35980       -0.05668
H          1.05443        1.67116        1.55830
H          2.35850        1.82024        0.35439
H         -0.52780       -0.12744        1.43047
H         -1.28028        1.67062       -0.19603
H         -1.56212        0.41981       -1.40164
H         -3.32430       -0.61473        0.07142
H         -2.96034        0.57234        1.34273
H         -3.66134        1.10234       -0.20072
H          0.10161       -2.37657        0.48589
H         -1.64922       -2.09172        0.49642
H         -0.74939       -1.96557       -1.02325
H          2.76295       -0.50292        0.55049
