17
2,3-DICHLORO-2-METHYLBUTANE.gamout	Energy:   -1116.3147817
C         41.00881       20.05823        0.02666
C         39.46204       20.06883        0.03852
C         38.84439       20.67301        1.29634
C         38.92900       20.74751       -1.22812
Cl        38.90905       18.30009       -0.05849
C         41.65573       21.43565       -0.07898
Cl        41.68954       19.21977        1.50564
H         41.33261       19.42551       -0.80803
H         37.75001       20.63594        1.23056
H         39.16265       20.13619        2.19602
H         39.14525       21.72733        1.39082
H         37.84586       20.59357       -1.29994
H         39.39649       20.33630       -2.13267
H         39.11658       21.83000       -1.19086
H         42.74707       21.32996       -0.06712
H         41.37391       21.92564       -1.02128
H         41.36672       22.08309        0.75890
