21
2,3-DIMETHYL-2-BUTANOL.gamout	Energy:    -311.8863255
C          1.35898        1.30775       -0.40730
C          0.61911        0.04031        0.04926
C          0.71953       -0.11496        1.57374
C         -0.84808        0.02664       -0.47343
C         -1.57851       -1.28793       -0.16220
C         -1.68203        1.22945       -0.00777
O          1.23034       -1.09701       -0.58732
H          2.42807        1.22880       -0.15754
H          1.26983        1.43397       -1.49504
H          0.97479        2.21026        0.08678
H          0.22184        0.71223        2.09861
H          0.27274       -1.06060        1.90492
H          1.77532       -0.11231        1.88591
H         -0.74889        0.09339       -1.56991
H         -1.78836       -1.38950        0.91323
H         -2.54618       -1.31156       -0.68399
H         -0.99214       -2.15612       -0.48443
H         -1.23995        2.18985       -0.30368
H         -2.68567        1.18003       -0.45322
H         -1.81235        1.23547        1.08485
H          2.15493       -1.15416       -0.32104
