18
2,3-DIMETHYLBUTENE.gamout	Energy:    -235.5222636
C          3.16760        3.04850        0.49106
C          3.32343        4.57153        0.43123
C          3.90049        2.38381       -0.69330
C          1.72450        2.56317        0.59339
C          1.54969        1.11169        0.97302
C          0.66275        3.35155        0.37094
H          3.66919        2.70340        1.41482
H          2.80916        5.06406        1.26800
H          2.92004        4.98033       -0.50749
H          4.38709        4.84378        0.47733
H          3.41146        2.64476       -1.64403
H          3.91820        1.28903       -0.60926
H          4.94368        2.73015       -0.74115
H          1.96403        0.43788        0.20608
H          0.49125        0.85446        1.10725
H          2.08535        0.88612        1.90994
H         -0.35350        2.96124        0.45180
H          0.75872        4.40314        0.10150
