32
2,3-DIMETHYL-4-ETHYLHEXANE.gamout	Energy:    -393.7666572
C          0.16530       29.30850       -1.07168
C          1.30705       30.02647       -0.34554
C          1.01652       31.47156        0.12210
C          0.13745       31.61839        1.42132
C          2.33465       32.26346        0.29759
C         -1.21029       32.36407        1.19230
C         -0.06023       30.33108        2.23711
C         -0.99527       33.80874        0.71673
C         -2.20317       31.63218        0.27895
C          3.13220       32.51984       -0.98413
H          0.48749       28.31324       -1.41071
H         -0.71992       29.17111       -0.43802
H         -0.15099       29.87512       -1.96085
H          2.16059       30.05922       -1.03691
H          1.64726       29.41879        0.50619
H          0.47597       31.95889       -0.70589
H          0.70201       32.28695        2.09165
H          2.09342       33.23801        0.74845
H          2.96915       31.74060        1.03487
H         -1.68152       32.42885        2.18881
H         -0.63217       30.55262        3.14986
H          0.90143       29.90602        2.55524
H         -0.60335       29.54826        1.69245
H         -1.95166       34.34928        0.66709
H         -0.33351       34.36061        1.40046
H         -0.54937       33.84861       -0.28845
H         -3.15350       32.18327        0.23078
H         -2.42895       30.62020        0.64131
H         -1.82191       31.54590       -0.74865
H          4.00507       33.15546       -0.77673
H          3.50610       31.59423       -1.44333
H          2.51291       33.03838       -1.73276
