27
2,3-DIMETHYL-2-HEPTENE.gamout	Energy:    -353.2994427
C          6.64374        3.68639        1.00560
C          5.37893        3.93813        1.79355
C          4.92005        3.14222        2.78794
C          4.67072        5.19934        1.35037
C          3.62861        3.43972        3.54293
C          5.63184        1.89921        3.27308
C          2.32639        3.06539        2.80498
C          2.18049        1.58010        2.45956
C          0.85186        1.24991        1.77608
H          7.36322        4.50933        1.15893
H          6.42420        3.66816       -0.07561
H          7.15063        2.75047        1.25775
H          4.30538        5.09926        0.31387
H          5.37273        6.05022        1.34762
H          3.81728        5.47074        1.97846
H          3.57890        4.50545        3.81135
H          3.65011        2.89505        4.50095
H          4.95455        1.03047        3.26469
H          5.94947        2.02951        4.32203
H          6.51803        1.63753        2.68766
H          1.47326        3.37217        3.43459
H          2.24914        3.65329        1.87596
H          3.01160        1.27640        1.80374
H          2.27690        0.98180        3.38180
H          0.73926        1.80954        0.83450
H         -0.00230        1.51056        2.42022
H          0.77782        0.17870        1.53875
