29
2,3-DIMETHYL-3-ETHYLPENTANE.gamout	Energy:    -354.5088577
C          4.20165        4.11303        1.59479
C          2.90654        3.24470        1.82082
C          3.08677        1.93473        0.99488
C          1.64833        3.97514        1.24876
C          2.71822        2.90869        3.31198
C          4.07112        5.59587        1.97968
C          5.46010        3.54684        2.27627
C          2.08638        0.80294        1.25231
C          0.85380        4.90925        2.17124
H          4.38169        4.08636        0.50510
H          4.09505        1.53246        1.16535
H          3.05119        2.20858       -0.07297
H          0.94108        3.21317        0.89073
H          1.95681        4.52574        0.34509
H          3.50363        2.23067        3.67194
H          1.75425        2.41484        3.49106
H          2.74406        3.80943        3.93924
H          5.02162        6.11448        1.78872
H          3.84461        5.71992        3.04898
H          3.29762        6.11624        1.40257
H          6.34957        4.09377        1.93222
H          5.41017        3.66475        3.36901
H          5.62767        2.48411        2.06127
H          2.26804       -0.02678        0.55429
H          2.17994        0.39895        2.27006
H          1.04349        1.12265        1.11406
H          0.02103        5.36219        1.61343
H          0.41474        4.36388        3.01817
H          1.45618        5.72757        2.58333
