22
2,4,6-TRIMETHYL_PHENOL.gamout	Energy:    -424.8714557
C          7.27210        3.05766       -0.91445
C          6.34429        1.89673       -0.64329
C          6.85180        0.65946       -0.21620
C          4.96003        2.01313       -0.80339
C          6.02591       -0.43620        0.04836
C          6.57278       -1.76331        0.50638
C          4.63888       -0.27455       -0.12555
O          3.85819       -1.37086        0.14236
C          4.08677        0.94431       -0.55137
C          2.59443        1.08790       -0.73025
H          8.02907        2.79914       -1.67166
H          6.72154        3.93518       -1.27893
H          7.81500        3.35788       -0.00406
H          7.93040        0.54201       -0.08391
H          4.53780        2.96470       -1.13563
H          6.30677       -2.56728       -0.19694
H          7.66604       -1.72721        0.59557
H          6.15261       -2.05229        1.48200
H          2.92725       -1.17176       -0.00212
H          2.19817        0.38426       -1.48322
H          2.04546        0.91110        0.21118
H          2.33734        2.09938       -1.06813
