13
2,4,6-TRICHLOROPHENOL.gamout	Energy:   -1685.3181385
Cl         1.29691       -2.68234       -0.00009
Cl         1.24797        2.74339        0.00020
Cl        -3.44384       -0.02720       -0.00020
O          2.46572        0.01363        0.00010
C          1.12114        0.03334        0.00002
C          0.40963       -1.18047       -0.00003
C          0.36937        1.22165        0.00008
C         -0.98461       -1.20387       -0.00011
C         -1.02380        1.22388       -0.00000
C         -1.69096       -0.00034       -0.00010
H         -1.51015       -2.15696       -0.00020
H         -1.57376        2.16305        0.00001
H          2.81219        0.91855        0.00019
