24
2,4,4-TRIMETHYL-2-PENTENE.gamout	Energy:    -314.0386644
C          3.14434        1.36774        2.53328
C          2.00809        1.76345        1.92996
C          0.70407        1.06399        2.23881
C          1.86689        2.88264        0.92777
C          4.58032        1.89096        2.41568
C          5.12772        1.73656        0.97834
C          5.46543        1.04208        3.35474
C          4.68051        3.36509        2.87009
H          3.03385        0.53141        3.23112
H         -0.03784        1.77521        2.64039
H          0.26112        0.63549        1.32356
H          0.83372        0.25499        2.96901
H          1.14928        3.63601        1.29464
H          1.45179        2.49676       -0.01870
H          2.80250        3.39678        0.69715
H          4.56489        2.33465        0.25130
H          6.17945        2.05942        0.93521
H          5.08076        0.68723        0.65388
H          6.51258        1.37401        3.31393
H          5.12480        1.12379        4.39759
H          5.43567       -0.02028        3.07076
H          4.30845        3.47882        3.89820
H          5.72792        3.70436        2.84755
H          4.09915        4.03883        2.22894
