29
2,4,4-TRIMETHYLHEXANE.gamout	Energy:    -354.5110207
C          3.13957        2.70712        2.63054
C          4.30150        2.01688        1.85296
C          1.87596        1.96095        3.13939
C          5.18768        1.10015        2.74435
C          3.79525        1.17242        0.66734
C          5.17428        3.15262        1.27078
C          2.13602        0.73468        4.02749
C          0.84637        1.63489        2.04421
C          5.84856        1.73500        3.97084
H          3.59224        3.21260        3.49696
H          2.77255        3.52571        1.98942
H          1.38928        2.70796        3.79087
H          5.97944        0.68997        2.09555
H          4.59764        0.23201        3.06571
H          3.11789        1.75166        0.02415
H          4.64291        0.84452        0.04778
H          3.26323        0.27045        0.99655
H          4.60938        3.72544        0.52110
H          6.07084        2.74697        0.77904
H          5.50534        3.86001        2.04367
H          1.20162        0.41234        4.50943
H          2.51177       -0.12110        3.44952
H          2.86209        0.95378        4.82265
H         -0.10682        1.32500        2.49752
H          1.17730        0.81694        1.39197
H          0.64443        2.51104        1.41086
H          6.49566        2.58073        3.69925
H          6.47727        0.99485        4.48613
H          5.11262        2.09901        4.70120
