20
2,4,6-TRIMETHYLPYRIDINE.gamout	Energy:    -365.7590882
C          1.98560       -0.61051        0.00029
N          2.07983       -1.94557        0.02372
C          3.11828        0.20635       -0.12373
C          0.59975       -0.02922        0.11914
C          5.62596        0.47132       -0.39441
C          4.38817       -0.37398       -0.22930
C          3.28225       -2.52637       -0.07278
C          4.45732       -1.77217       -0.19924
C          3.30687       -4.03320       -0.03544
H          3.00756        1.29240       -0.13549
H          0.14264       -0.32930        1.07406
H          0.60842        1.06712        0.06235
H         -0.04395       -0.42123       -0.68204
H          5.50966        1.45155        0.08796
H          6.50979       -0.02288        0.03213
H          5.83242        0.65158       -1.46193
H          5.42333       -2.27573       -0.27152
H          2.85562       -4.39555        0.90022
H          2.70479       -4.44082       -0.86109
H          4.32735       -4.43066       -0.11261
