21
2,4-DIMETHYL-2-PENTENE.gamout	Energy:    -274.7857500
C          3.23851        2.43895        1.45440
C          1.88256        1.85249        1.76183
C          4.45994        1.92415        1.68328
C          1.08548        1.63272        0.46245
C          1.10618        2.75798        2.73565
C          4.72177        0.58808        2.33303
C          5.70498        2.67992        1.28640
H          3.19702        3.42495        0.97366
H          2.00954        0.87326        2.24675
H          0.94099        2.58660       -0.06928
H          0.09052        1.21245        0.67423
H          1.61200        0.94672       -0.21594
H          0.95717        3.75970        2.30224
H          0.11331        2.33784        2.95704
H          1.64796        2.88002        3.68415
H          5.29872       -0.06414        1.65539
H          3.80934        0.05367        2.61891
H          5.33864        0.71431        3.23926
H          6.34666        2.87386        2.16291
H          6.31288        2.08959        0.57965
H          5.46649        3.64223        0.81512
