20
2,4-DIMETHYLANILINE.gamout	Energy:    -365.7600734
C          7.27889        3.01513       -1.06954
C          6.36683        1.86259       -0.72067
C          6.87067        0.62880       -0.29002
C          4.97147        1.99555       -0.79633
C          6.01732       -0.42389        0.04365
C          4.62387       -0.27624       -0.03604
N          3.77292       -1.31493        0.35427
C          4.08865        0.96404       -0.46213
C          2.59507        1.15214       -0.54201
H          8.31879        2.68064       -1.18604
H          6.97458        3.50153       -2.00910
H          7.26729        3.79202       -0.28696
H          7.95069        0.48147       -0.21817
H          4.55000        2.94886       -1.12777
H          6.43682       -1.37770        0.37293
H          2.86425       -1.35573       -0.08762
H          4.20032       -2.22762        0.43993
H          2.13429        0.48028       -1.28810
H          2.11269        0.93351        0.42503
H          2.33780        2.18030       -0.82548
