26
2,4-DIMETHYLHEXANE.gamout	Energy:    -315.2587308
C          4.56123        2.73932        2.23316
C          3.34018        1.92220        1.75122
C          2.06392        2.79056        1.81102
C          3.14116        0.60260        2.51353
C          5.96293        2.28746        1.75971
C          0.84997        2.21498        1.07570
C          6.56593        1.13834        2.58284
C          6.92993        3.48235        1.75638
H          4.41579        3.77127        1.87721
H          4.55216        2.80514        3.33620
H          3.51111        1.67670        0.68662
H          1.80396        2.97304        2.86837
H          2.29458        3.77922        1.38292
H          2.99917        0.79842        3.58824
H          2.25763        0.05892        2.15262
H          3.99763       -0.07270        2.40705
H          5.85966        1.94204        0.71556
H          0.50413        1.26923        1.51629
H          0.00448        2.91731        1.10763
H          1.08564        2.02470        0.01709
H          7.56853        0.87860        2.21152
H          6.66755        1.43341        3.63935
H          5.95789        0.22755        2.54798
H          7.04003        3.89865        2.77065
H          7.93007        3.18468        1.40910
H          6.56969        4.28871        1.10080
