24
2,4-DIMETHYL-1-HEXENE.gamout	Energy:    -314.0379759
C         -0.26095       19.14060       -0.15028
C          1.03005       19.80110        0.34334
C          1.21603       21.28994       -0.02275
C          0.41263       22.25780        0.88286
C          2.70354       21.66899        0.03402
C         -1.09870       22.21996        0.80213
C         -1.85578       21.96537        1.87946
C         -1.70837       22.55375       -0.53670
H         -0.27130       18.07150        0.10775
H         -1.15349       19.59951        0.29249
H         -0.34478       19.21674       -1.24563
H          1.88182       19.23808       -0.07137
H          1.10584       19.69432        1.43933
H          0.88291       21.42949       -1.06589
H          0.72387       22.09250        1.92679
H          0.72787       23.28472        0.62515
H          2.86194       22.72089       -0.24577
H          3.29806       21.04491       -0.64858
H          3.10738       21.52986        1.04974
H         -2.94625       21.97606        1.82740
H         -1.40878       21.73812        2.84932
H         -1.34413       23.53084       -0.89466
H         -1.42668       21.81312       -1.30170
H         -2.80431       22.58924       -0.48652
