32
2,4-DIMETHYL-3-ETHYLHEXANE.gamout	Energy:    -393.7666519
C          0.10227       20.23584       -1.00723
C          1.35373       20.86477       -0.39021
C          1.24547       22.33148        0.09117
C          0.42272       22.61075        1.40664
C          2.66311       22.91045        0.24557
C         -0.90042       23.40036        1.18406
C          0.25879       21.37427        2.31517
C         -0.64056       24.79662        0.59630
C         -1.97495       22.66379        0.37458
C         -0.28228       21.67050        3.71744
H          0.32757       19.22795       -1.38476
H         -0.72130       20.14192       -0.28860
H         -0.26457       20.83265       -1.85602
H          2.14746       20.83991       -1.15374
H          1.72237       20.22711        0.42754
H          0.76325       22.88688       -0.72853
H          1.04432       23.30681        1.99489
H          2.63426       23.98116        0.49239
H          3.25286       22.79393       -0.67543
H          3.20670       22.39660        1.05467
H         -1.31839       23.56892        2.18901
H         -0.37942       20.61826        1.83502
H          1.24701       20.90338        2.42536
H         -1.56911       25.38488        0.56747
H          0.09012       25.35507        1.19954
H         -0.25766       24.74501       -0.43356
H         -2.90107       23.25577        0.34625
H         -2.22469       21.68607        0.80863
H         -1.65828       22.50094       -0.66499
H         -0.24196       20.76961        4.34611
H          0.31212       22.45137        4.21662
H         -1.32824       22.00667        3.70007
