32
2,4-DIMETHYLOCTANE.gamout	Energy:    -393.7802402
C          0.77743       18.15838        0.02714
C          1.79972       19.29648        0.05229
C          1.16110       20.68866        0.01904
C          2.18336       21.83005        0.04137
C          1.59512       23.24898       -0.09929
C          0.72879       23.62272        1.11955
C          2.72004       24.26568       -0.34088
C         -0.00146       24.97903        1.07818
C         -0.97783       25.08157       -0.10171
C         -0.72856       25.22754        2.40702
H          1.26857       17.17489        0.05190
H          0.09967       18.21699        0.89287
H          0.15913       18.20224       -0.88294
H          2.48680       19.19332       -0.80448
H          2.42635       19.20856        0.95606
H          0.47146       20.78183        0.87281
H          0.53874       20.77943       -0.88878
H          2.90078       21.66960       -0.78084
H          2.77533       21.77726        0.97275
H          0.94985       23.24146       -0.99492
H         -0.03134       22.84023        1.27226
H          1.37229       23.59832        2.01676
H          2.33391       25.27517       -0.53644
H          3.33043       23.97199       -1.20699
H          3.38751       24.32799        0.53392
H          0.75094       25.77684        0.96357
H         -1.50849       26.04480       -0.09028
H         -0.46621       24.99874       -1.07051
H         -1.73597       24.28313       -0.05352
H         -1.22159       26.21060        2.41383
H         -0.03114       25.19373        3.25727
H         -1.50331       24.46317        2.57871
