32
2,4-DIMETHYL-3-ISOPROPYLPENTANE.gamout	Energy:    -393.7667452
C          0.64465       28.80513       -0.54743
C          1.47717       29.82548        0.24551
C          1.06416       31.32433        0.09866
C          1.50899       29.41590        1.72841
C          1.75632       32.07687       -1.08182
C         -0.46893       31.59405        0.22773
C          3.18721       32.48914       -0.69569
C          1.78432       31.34969       -2.43623
C         -0.72569       32.95142        0.90350
C         -1.28905       31.50611       -1.07025
H          0.62131       29.01680       -1.62233
H          1.06805       27.79832       -0.41972
H         -0.39346       28.76501       -0.18630
H          2.51361       29.74942       -0.12230
H          1.48919       31.80103        0.99554
H          2.19293       30.05461        2.30564
H          1.84273       28.37435        1.84334
H          0.50990       29.49380        2.18367
H          1.19255       33.01241       -1.22851
H         -0.86744       30.82563        0.91040
H          3.66600       33.05979       -1.50493
H          3.19235       33.11610        0.20751
H          3.81901       31.60958       -0.49630
H          2.23299       32.00186       -3.19959
H          0.78690       31.06789       -2.79164
H          2.39926       30.43921       -2.38979
H         -1.80315       33.12925        1.03478
H         -0.25290       33.00302        1.89502
H         -0.32794       33.78144        0.29918
H         -2.35742       31.64043       -0.84639
H         -1.17932       30.54101       -1.57684
H         -1.00836       32.29776       -1.78006
