13
2,4-DICHLOROPHENOL.gamout	Energy:   -1225.9058911
Cl         2.00932       -1.94370       -0.00010
Cl        -3.25379       -0.58634       -0.00010
O          2.45407        0.95964        0.00010
C          1.13545        0.64484        0.00008
C          0.76941       -0.71292       -0.00008
C          0.12086        1.61104        0.00010
C         -0.57362       -1.08992       -0.00010
C         -1.22560        1.24612        0.00008
C         -1.56451       -0.10751       -0.00007
H          0.39198        2.66953        0.00020
H         -0.83781       -2.14586       -0.00020
H         -2.00291        2.00935        0.00009
H          2.57947        1.91557        0.00021
