17
2,4-DINITROPHENOL.gamout	Energy:    -715.6340121
C          6.37228        1.89601       -0.63389
C          6.90071        0.64866       -0.33474
C          4.98093        2.10486       -0.70278
C          6.03035       -0.41710       -0.08322
C          4.65095       -0.24746       -0.12576
N          6.57967       -1.74111        0.23717
C          4.13089        1.00307       -0.44839
N          2.66448        1.13063       -0.50421
O          4.45994        3.31068       -0.96438
O          2.19127        1.92895       -1.29519
O          2.01892        0.40142        0.23610
O          5.78911       -2.65098        0.43873
O          7.79781       -1.85102        0.28214
H          7.04230        2.73735       -0.82296
H          7.97583        0.48556       -0.28883
H          3.98103       -1.07702        0.08881
H          5.15363        3.97513       -1.06283
