21
2,4-DIMETHYL-1-PENTENE.gamout	Energy:    -274.7809159
C          3.31028        1.78374        1.00861
C          2.00825        1.90573        1.83759
C          4.41816        2.74747        1.40104
C          0.94321        0.94381        1.29691
C          2.23881        1.69086        3.33819
C          5.55524        2.18309        2.21429
C          4.38498        4.03456        1.02675
H          3.67837        0.74664        1.08547
H          3.05395        1.94326       -0.05026
H          1.63673        2.93595        1.70183
H          0.74912        1.11837        0.22809
H         -0.00834        1.06103        1.83598
H          1.26522       -0.10358        1.41282
H          1.29529        1.78181        3.89589
H          2.64655        0.68606        3.53380
H          2.93867        2.43097        3.74963
H          6.28597        2.95555        2.48818
H          6.07896        1.39831        1.64309
H          5.19088        1.70399        3.13673
H          3.57113        4.43064        0.41501
H          5.16976        4.73552        1.31695
