22
2,4-DIMETHYL-3-PENTANONE.gamout	Energy:    -349.9372331
C          1.28308        0.10405       -0.04408
C          0.38088        0.15340        1.20362
C         -0.07571        1.46032        1.87647
O          0.02265       -0.90262        1.69154
C          0.99072        1.13167       -1.14651
C          2.76943        0.12232        0.37208
C          1.02590        2.50723        2.09774
C         -1.30338        2.05665        1.15791
H          1.07867       -0.89693       -0.45214
H         -0.42006        1.11690        2.86318
H          1.21532        2.16006       -0.83428
H         -0.05693        1.09188       -1.47374
H          1.61867        0.91231       -2.02194
H          3.09572        1.12219        0.68920
H          3.39464       -0.17457       -0.48279
H          2.96295       -0.58438        1.19062
H          1.37596        2.95590        1.15859
H          1.89342        2.08239        2.62072
H          0.63295        3.32364        2.72100
H         -1.04698        2.46768        0.17279
H         -1.72063        2.87666        1.76082
H         -2.08959        1.30106        1.02458
