24
2,4-DIMETHYL-3-PENTANOL.gamout	Energy:    -351.1419871
C         -1.62400        1.63331       -0.20978
C         -1.33480        0.19322        0.23637
C         -2.51540       -0.72318       -0.11627
C         -0.01981       -0.36406       -0.35717
C          1.23994        0.50933       -0.14434
C          1.58019        0.73559        1.33570
C          2.43912       -0.07575       -0.90248
O          0.20114       -1.70705        0.08193
H         -0.86803        2.34697        0.14272
H         -1.66653        1.70031       -1.30864
H         -2.59685        1.96520        0.17925
H         -1.22478        0.19138        1.33599
H         -2.68375       -0.73469       -1.20488
H         -2.33582       -1.75618        0.20507
H         -3.43990       -0.36712        0.36061
H         -0.16400       -0.46586       -1.44558
H          1.01988        1.49062       -0.59435
H          0.75421        1.20089        1.89111
H          1.83965       -0.21002        1.83782
H          2.45400        1.39528        1.43162
H          2.21824       -0.18219       -1.97480
H          3.31936        0.57589       -0.80333
H          2.70411       -1.06963       -0.51597
H          0.27593       -1.72293        1.04346
