24
2,4-DIMETHYL-2-HEXENE.gamout	Energy:    -314.0443518
C         -0.25652       18.48983       -0.33362
C          1.19922       18.82782       -0.01046
C          1.48039       20.33697        0.16557
C          0.74883       20.89460        1.36192
C          2.99293       20.59420        0.29965
C         -0.17310       21.87247        1.41728
C         -0.77499       22.29804        2.73438
C         -0.69032       22.63464        0.22207
H         -0.39686       17.40418       -0.43725
H         -0.93326       18.84578        0.45646
H         -0.57233       18.95903       -1.27862
H          1.85182       18.44374       -0.81163
H          1.50545       18.30269        0.91105
H          1.13405       20.84623       -0.74691
H          1.03534       20.42691        2.31291
H          3.20541       21.66917        0.38166
H          3.53964       20.20008       -0.57038
H          3.39529       20.10349        1.19993
H         -0.37394       21.71885        3.57638
H         -0.58128       23.36687        2.92810
H         -1.87161       22.17687        2.72394
H         -0.24816       22.31263       -0.72658
H         -1.78516       22.52647        0.14130
H         -0.49413       23.71391        0.34002
