19
2,4-DINITROTOLUENE.gamout	Energy:    -679.7569793
O          6.88126        4.08446       -0.94791
N          7.28225        2.92901       -0.94951
O          8.44142        2.60108       -1.15157
C          6.30299        1.85262       -0.67764
C          6.84753        0.61479       -0.33345
C          4.90877        2.07420       -0.76579
C          5.98496       -0.43619       -0.05275
C          4.25613        3.37650       -1.14788
C          4.08857        0.96437       -0.48312
N          6.54873       -1.74566        0.32486
C          4.60047       -0.27828       -0.12427
O          5.75988       -2.65170        0.55353
O          7.76450       -1.84476        0.38611
H          7.92489        0.48066       -0.28737
H          3.17820        3.22461       -1.28158
H          4.41585        4.14111       -0.37551
H          4.67854        3.78552       -2.07490
H          3.00777        1.09033       -0.54967
H          3.94964       -1.12231        0.09648
