23
2,4-DIMETHYLQUINOLINE.gamout	Energy:    -479.9396459
C         -3.90820       -2.15488        1.74843
C         -5.35145       -1.89078        2.08885
C         -3.47954       -3.43939        1.27444
C         -2.94952       -1.17356        1.88032
C         -2.08828       -3.60788        0.97480
C         -4.35677       -4.54305        1.08873
C         -1.58315       -1.43109        1.55732
N         -1.17662       -2.60418        1.12303
C         -1.62917       -4.86743        0.50311
C         -3.88194       -5.75551        0.62851
C         -0.55751       -0.33668        1.71236
C         -2.50635       -5.91888        0.33329
H         -5.49187       -0.85876        2.43236
H         -6.00378       -2.05153        1.21616
H         -5.70279       -2.56644        2.88441
H         -3.23076       -0.18065        2.23724
H         -5.41777       -4.43027        1.31258
H         -0.56546       -4.96527        0.28338
H         -4.56879       -6.59265        0.49120
H         -0.81123        0.53168        1.08425
H         -0.51403        0.01811        2.75414
H          0.43068       -0.71042        1.42180
H         -2.14240       -6.88190       -0.02999
