15
2,4-DIMETHYLTHIOPHENE.gamout	Energy:    -631.1609434
C         -4.98364       -0.72431       -1.27896
C         -5.19131       -1.87572       -2.22457
C         -3.69310       -0.17162       -0.96773
C         -5.98456       -0.07002       -0.60763
C         -3.72266        0.87522       -0.08187
S         -5.37124        1.21004        0.39808
C         -2.57545        1.67695        0.45579
H         -4.81490       -1.63670       -3.23199
H         -4.65453       -2.77483       -1.88225
H         -6.25516       -2.13223       -2.31421
H         -2.76303       -0.54850       -1.39711
H         -7.05361       -0.26739       -0.64596
H         -1.63208        1.30573        0.03308
H         -2.66464        2.74385        0.19800
H         -2.50479        1.60750        1.55253
