24
2,5-DIMETHYL-2-HEXENE.gamout	Energy:    -314.0440572
C          1.95231        2.27635        2.79680
C          3.11402        2.37072        3.74992
C          2.01863        1.09181        1.80099
C          3.14744        2.02088        5.04948
C          3.27409        1.14201        0.92110
C          0.74767        1.04309        0.94428
C          4.40675        2.17939        5.86609
C          1.97620        1.45341        5.81295
H          1.89729        3.21125        2.20978
H          1.00531        2.21122        3.35106
H          4.04235        2.76540        3.32437
H          2.06226        0.16540        2.40022
H          4.19441        1.10373        1.51958
H          3.29478        2.06844        0.32429
H          3.29711        0.29396        0.22074
H          0.76079        0.18073        0.26130
H          0.65339        1.95364        0.33088
H         -0.15535        0.96457        1.56814
H          4.23352        2.84449        6.72927
H          5.23252        2.59443        5.27352
H          4.73198        1.20976        6.28037
H          1.74058        2.08683        6.68479
H          1.06844        1.35521        5.20788
H          2.22497        0.45594        6.21296
