16
2,5-DIMETHYLPYRROLE.gamout	Energy:    -288.4307080
C         -0.32073       -1.55586        0.12536
N         -1.17666       -0.69987       -0.54081
C         -1.11137       -2.39456        0.88796
C          1.16342       -1.48116       -0.03863
C         -2.47696       -2.02723        0.66968
C         -2.49330       -0.97152       -0.22206
C         -3.62801       -0.19120       -0.80398
H         -0.87968        0.02756       -1.17527
H         -0.74357       -3.18835        1.53408
H          1.64481       -2.25012        0.57879
H          1.47594       -1.65030       -1.08296
H          1.56856       -0.50356        0.27252
H         -3.35644       -2.48525        1.11635
H         -4.58033       -0.57390       -0.41557
H         -3.57138        0.88028       -0.54800
H         -3.66409       -0.26580       -1.90403
