11
2,5-DIHYDROFURAN.gamout	Energy:    -230.9248887
C          2.40596        0.87595        0.89921
C          1.07143        0.89243        0.89520
C          2.93114        2.28574        0.90391
C          0.58136        2.31478        0.89688
O          1.76623        3.11223        0.90179
H          3.04823       -0.00504        0.89930
H          0.40759        0.02761        0.89138
H          3.54577        2.50667        1.79710
H          3.55157        2.51053        0.01574
H         -0.02822        2.55455        0.00506
H         -0.03303        2.55078        1.78640
