22
2,5-DIMETHYL-2,4-HEXADIENE.gamout	Energy:    -312.8325202
C          2.95699        2.13399        1.83377
C          3.73691        3.28485        1.40388
C          1.64209        1.90278        1.60137
C          5.05187        3.51597        1.63595
C          0.73063        2.82489        0.83406
C          0.97693        0.65244        2.11788
C          5.96356        2.59358        2.40266
C          5.71692        4.76639        1.11954
H          3.48753        1.36995        2.40729
H          3.20625        4.04912        0.83075
H         -0.12383        3.13097        1.46149
H          0.30210        2.30505       -0.04018
H          1.22683        3.73267        0.47479
H          0.54625        0.06345        1.28942
H          0.13797        0.89934        2.79144
H          1.67817        0.00959        2.66623
H          6.81766        2.28752        1.77473
H          5.46746        1.68575        2.76192
H          6.39260        3.11319        3.27678
H          6.14819        5.35503        1.94793
H          5.01548        5.40954        0.57179
H          6.55545        4.51963        0.44538
