26
2,5-DIMETHYLHEXANE.gamout	Energy:    -315.2642645
C          3.37377        2.29583        1.41792
C          4.67518        1.48931        1.49682
C          2.10014        1.45196        1.22169
C          5.96364        2.33367        1.47039
C          1.83040        0.51836        2.41049
C          0.88770        2.35206        0.95204
C          6.09075        3.24896        2.69594
C          7.19817        1.43434        1.32776
H          3.25106        2.90907        2.32655
H          3.45480        3.00930        0.58019
H          4.68338        0.86579        2.40644
H          4.70445        0.78787        0.64533
H          2.25725        0.82110        0.32808
H          5.91288        2.97677        0.57297
H          1.68216        1.10004        3.33474
H          0.92307       -0.08056        2.24364
H          2.65965       -0.18116        2.58269
H          1.05173        2.99590        0.07506
H         -0.01934        1.75720        0.76942
H          0.68805        3.00816        1.81452
H          6.09592        2.65746        3.62580
H          7.02802        3.82365        2.66248
H          5.26470        3.97065        2.76229
H          8.12345        2.02793        1.29161
H          7.28079        0.74076        2.18010
H          7.14896        0.83050        0.40934
