15
2,5-DIMETHYLTHIOPHENE.gamout	Energy:    -631.1610226
C         -3.70602        0.86459       -0.09940
C         -2.58046        1.71791        0.40202
S         -5.33965        1.06407        0.50326
C         -3.67278       -0.13747       -1.03440
C         -5.96243       -0.21522       -0.52045
C         -4.94691       -0.74728       -1.27214
C         -7.41265       -0.59309       -0.49890
H         -1.64701        1.43106       -0.10106
H         -2.75486        2.78751        0.20519
H         -2.42787        1.60345        1.48681
H         -2.75541       -0.43497       -1.54422
H         -5.10481       -1.55971       -1.98285
H         -7.59208       -1.41148       -1.20929
H         -7.73433       -0.93482        0.49761
H         -8.06271        0.24925       -0.78367
