29
2,5-DIMETHYLHEPTANE.gamout	Energy:    -354.5213927
C          4.03707        2.17431        2.67545
C          3.33025        2.11089        4.04360
C          1.80584        2.25137        3.85997
C          3.89045        3.15436        5.02091
C          5.49707        1.70636        2.67808
C          0.96780        2.02702        5.12082
C          6.18991        1.74184        1.30182
C          7.48891        0.92573        1.32835
C          6.45866        3.17549        0.82231
H          3.47694        1.54956        1.95947
H          3.96945        3.20635        2.29263
H          3.51924        1.10891        4.47159
H          1.58876        3.25205        3.44666
H          1.48374        1.53217        3.08951
H          3.72127        4.17282        4.63553
H          3.41443        3.08689        6.00816
H          4.97065        3.02915        5.17490
H          6.09144        2.31178        3.38272
H          5.53056        0.67364        3.06433
H          1.15731        1.03044        5.54940
H          1.18214        2.77152        5.90064
H         -0.10619        2.09272        4.89421
H          5.51064        1.26374        0.57313
H          7.29776       -0.12181        1.60460
H          8.19672        1.34092        2.06390
H          7.98845        0.93115        0.34826
H          7.15208        3.68903        1.50760
H          5.53795        3.77176        0.76517
H          6.91745        3.17632       -0.17743
