19
2,5-XYLENOL.gamout	Energy:    -385.6103024
C         -1.63473        0.27413       -0.15609
C         -0.29050        0.65347       -0.06942
C         -2.01585       -1.06881       -0.03253
C         -1.00905       -2.02177        0.18065
C          0.72524       -0.29509        0.14436
C          0.32997       -1.63305        0.26589
C          2.16440        0.14027        0.23333
H          2.31528        0.85695        1.05529
H          2.82375       -0.72148        0.40024
H          2.48543        0.64942       -0.68844
C         -3.46600       -1.48053       -0.12584
H         -3.62450       -2.18985       -0.95306
H         -4.12258       -0.61628       -0.29311
H         -3.79655       -1.98075        0.79785
O          0.09964        1.96118       -0.18910
H         -0.66543        2.52937       -0.33281
H         -2.39687        1.04091       -0.32323
H         -1.27336       -3.07630        0.28113
H          1.09782       -2.39191        0.43239
