22
2,5-DIMETHYL-1,5-HEXADIENE.gamout	Energy:    -312.8174100
C          3.32626        2.19310        1.63208
C          4.59612        1.68895        2.33450
C          2.04469        1.43409        1.90554
C          5.83511        2.49020        1.99266
C          0.83904        1.96132        1.16709
C          1.95863        0.37940        2.72823
C          5.90676        3.89587        2.53686
C          6.82299        1.96851        1.25137
H          3.14967        3.25177        1.89144
H          3.50202        2.19476        0.54126
H          4.43552        1.71966        3.42603
H          4.76170        0.63582        2.06581
H          0.64752        3.01581        1.42791
H          1.00282        1.93237        0.07681
H         -0.06455        1.38153        1.39485
H          1.00688       -0.12998        2.88854
H          2.81907       -0.01549        3.26861
H          5.82017        3.89114        3.63624
H          6.85100        4.38642        2.26739
H          5.08037        4.51971        2.15966
H          7.71649        2.54455        1.00265
H          6.77166        0.94653        0.86971
