24
2,5-DIMETHYL-TRANS-3-HEXENE.gamout	Energy:    -314.0426919
C          3.39382        3.72143        2.25358
C          2.99140        2.46034        2.05970
C          4.79131        4.24526        2.03463
C          1.59386        1.93668        2.27873
C          5.39170        4.77848        3.34716
C          4.80839        5.32876        0.94156
C          1.57672        0.85307        3.37172
C          0.99326        1.40364        0.96622
H          2.65825        4.45870        2.60329
H          3.72690        1.72299        1.70999
H          5.41577        3.40287        1.69128
H          0.96955        2.77913        2.62221
H          4.79115        5.61350        3.74258
H          5.42570        3.99485        4.11715
H          6.41562        5.14970        3.18917
H          5.83030        5.70068        0.77346
H          4.42236        4.93953       -0.01102
H          4.18280        6.18739        1.23364
H          1.96323        1.24207        4.32420
H          0.55471        0.48156        3.54012
H          2.20187       -0.00577        3.07932
H          1.59377        0.56871        0.57058
H          0.95911        2.18738        0.19635
H         -0.03061        1.03233        1.12431
