26
2,6-DIETHYLANILINE.gamout	Energy:    -444.2738918
C          6.50391        1.81313       -0.50569
C          6.84428        0.50743       -0.13319
C          5.18774        2.27258       -0.44338
C          5.82106       -0.36433        0.31727
C          8.28386        0.04408       -0.22397
C          4.48187        0.09339        0.39845
N          6.14492       -1.65414        0.75127
C          4.19231        1.40740        0.01281
C          3.37100       -0.81700        0.88062
C          2.81305       -1.75579       -0.20519
C          8.61621       -0.72815       -1.51442
H          7.29662        2.48374       -0.84541
H          4.94271        3.29567       -0.73241
H          8.94006        0.92481       -0.16470
H          8.53957       -0.57167        0.65447
H          5.39845       -2.33222        0.78182
H          7.01129       -2.04797        0.41651
H          3.15977        1.75809        0.08055
H          3.71454       -1.41039        1.74447
H          2.54855       -0.19431        1.26226
H          2.01713       -2.39869        0.19980
H          2.39354       -1.17395       -1.03850
H          3.59256       -2.40800       -0.62738
H          9.66872       -1.04930       -1.52064
H          7.98885       -1.62446       -1.63516
H          8.44584       -0.09432       -2.39649
