29
2,6-DIMETHYLHEPTANE.gamout	Energy:    -354.5230204
C          3.60536        1.22366        0.16483
C          2.63941        0.05626       -0.07954
C          1.17955        0.54757       -0.07490
C          0.11702       -0.55570       -0.04235
C         -1.31135       -0.00632        0.04129
C         -2.42732       -1.06816        0.04380
C         -3.80569       -0.40647       -0.08508
H          3.38124        1.73450        1.11295
H          4.64852        0.87726        0.20533
H          3.53248        1.96989       -0.64264
C          3.00123       -0.69055       -1.37099
H          2.75197       -0.65034        0.76256
H          1.03139        1.19883        0.80308
H          1.01674        1.19323       -0.95659
H          0.19990       -1.19233       -0.93808
H          0.31954       -1.21170        0.81993
H         -1.41147        0.61699        0.94792
H         -1.47501        0.67461       -0.81094
H         -4.60781       -1.15817       -0.12264
H         -4.00565        0.25218        0.77539
H         -3.87219        0.20556       -0.99672
C         -2.36934       -1.97195        1.28361
H         -2.27739       -1.70722       -0.84543
H         -2.46498       -1.37425        2.20454
H         -1.42632       -2.53215        1.34287
H         -3.18847       -2.70603        1.27619
H          4.04998       -1.02164       -1.35366
H          2.87153       -0.03569       -2.24761
H          2.37717       -1.58225       -1.52292
