20
2,6-DIMETHYLANILINE.gamout	Energy:    -365.7607467
C          7.27151        3.00818       -0.96751
C          6.35777        1.84419       -0.67613
C          6.87095        0.58604       -0.34230
C          4.95314        2.01513       -0.72931
C          6.03026       -0.49184       -0.05816
C          4.64721       -0.30626       -0.10693
C          4.08792        0.93327       -0.43593
C          2.59312        1.13000       -0.47312
N          4.41795        3.27266       -1.01539
H          8.32384        2.72283       -0.84675
H          7.14908        3.38168       -1.99989
H          7.07280        3.85708       -0.29188
H          7.95447        0.45386       -0.30166
H          6.44797       -1.46548        0.20167
H          3.98037       -1.14170        0.11803
H          2.06831        0.21116       -0.18353
H          2.27253        1.93194        0.21297
H          2.23769        1.40684       -1.48170
H          5.01372        3.93070       -1.49745
H          3.46049        3.30584       -1.33539
