25
2,6-DIMETHYL-1,5-HEPTADIENE.gamout	Energy:    -352.0761682
C          1.52367        1.17244        3.92620
C          1.87687        1.47758        2.66945
C          3.23934        2.00878        2.27849
C          0.91748        1.30992        1.51666
C          4.26123        2.20996        3.39720
C          5.61177        2.76275        2.89771
C          6.37335        1.84898        1.95904
C          6.62152        2.19546        0.68750
C          6.85556        0.54129        2.53661
H          2.20241        1.28854        4.77140
H          0.52629        0.79057        4.15120
H          3.09289        2.97000        1.75044
H          3.66294        1.33683        1.51117
H          0.74825        2.27181        1.00413
H          1.32933        0.61984        0.76129
H         -0.05382        0.92019        1.84699
H          3.85729        2.91258        4.14225
H          4.42279        1.25961        3.92900
H          6.24344        2.96732        3.77972
H          5.44430        3.73119        2.40165
H          7.18076        1.54264        0.01423
H          6.27585        3.14747        0.27973
H          7.48990        0.71671        3.42140
H          6.01421       -0.08566        2.87288
H          7.43561       -0.03552        1.80461
