19
2,6-XYLENOL.gamout	Energy:    -385.6099385
C          6.32285        1.88338       -0.66185
C          6.82543        0.59363       -0.40648
C          4.94108        2.07888       -0.55585
C          7.26909        2.99482       -1.03492
C          4.08347        1.03167       -0.20806
C          4.60992       -0.23637        0.03961
C          5.98717       -0.48077       -0.05451
C          6.56802       -1.84896        0.21022
O          8.18258        0.43773       -0.52044
H          4.53332        3.07324       -0.75010
H          8.01915        3.16036       -0.24652
H          7.82806        2.75163       -1.95155
H          6.72391        3.93305       -1.19901
H          3.00899        1.20435       -0.13042
H          3.94451       -1.05849        0.31177
H          7.28887       -1.83916        1.04676
H          5.77893       -2.56317        0.47478
H          7.08983       -2.25563       -0.67395
H          8.44054       -0.47023       -0.32942
