24
2,6-DIMETHYLNAPHTHALENE.gamout	Energy:    -463.9107092
C          1.87322        1.83333        0.90837
C          0.57956        1.05645        0.92095
C          3.10348        1.20522        0.95777
C          1.84246        3.25759        0.84264
C          4.32296        1.93811        0.94457
C          3.00197        4.00002        0.82799
C          4.27716        3.36945        0.87814
C          5.59813        1.30756        0.99533
C          5.49661        4.10237        0.86487
C          6.75762        2.05003        0.98061
C          6.72686        3.47425        0.91401
C          8.02067        4.25083        0.89698
H         -0.05721        1.36075        1.76666
H         -0.00042        1.23562        0.00141
H          0.75886       -0.02343        1.00223
H          3.15296        0.11478        1.00899
H          0.87503        3.76351        0.80372
H          2.95527        5.08979        0.77708
H          5.64489        0.21780        1.04645
H          5.44711        5.19282        0.81377
H          7.72511        1.54427        1.02039
H          8.63085        4.02625        1.78618
H          8.62813        3.98894        0.01591
H          7.84043        5.33337        0.87398
