23
2,6-DIMETHYLQUINOLINE.gamout	Energy:    -479.9391946
C         -3.92399       -5.74983        0.68177
C         -2.52225       -5.93040        0.48841
C         -4.38017       -4.49804        1.05288
C         -4.86353       -6.91290        0.47998
C         -1.62892       -4.89644        0.66188
C         -2.08411       -3.60451        1.04322
C         -3.48745       -3.40768        1.24126
C         -3.90594       -2.10415        1.62248
N         -1.17555       -2.60258        1.20698
C         -1.58713       -1.40209        1.56081
C         -2.96912       -1.11159        1.78113
C         -0.55262       -0.31832        1.73247
H         -2.15465       -6.91673        0.19528
H         -5.44912       -4.33108        1.20809
H         -5.90707       -6.62485        0.66197
H         -4.79371       -7.30515       -0.54712
H         -4.61690       -7.74381        1.15997
H         -0.55735       -5.03525        0.51387
H         -4.96771       -1.90460        1.78547
H         -3.26675       -0.10299        2.07321
H         -0.56960        0.08419        2.75764
H          0.44513       -0.72047        1.52443
H         -0.74846        0.52401        1.05030
