19
2,6-DINITROTOLUENE.gamout	Energy:    -679.7494185
O          6.71887        4.10866       -0.44990
N          7.12033        3.04359       -0.89540
O          8.13052        2.90108       -1.56749
C          6.29665        1.84556       -0.62614
C          6.90730        0.60341       -0.35598
C          4.91484        2.04080       -0.66857
C          8.39924        0.43168       -0.21777
C          5.99063       -0.44708       -0.14299
C          4.06056        0.96264       -0.45364
N          6.47188       -1.81848        0.12744
C          4.60393       -0.28928       -0.17793
O          5.83155       -2.48817        0.92482
O          7.45766       -2.20698       -0.48079
H          4.53066        3.03987       -0.86851
H          8.84424        0.14090       -1.17879
H          8.87572        1.36456        0.09818
H          8.63891       -0.35418        0.50574
H          2.98007        1.09809       -0.49408
H          3.97144       -1.15428        0.01533
