24
2,7-DIMETHYLNAPHTHALENE.gamout	Energy:    -463.9107909
C          1.87888        3.30741        0.85651
C          0.57953        4.07485        0.85110
C          3.10381        3.94859        0.85525
C          1.85692        1.88168        0.86285
C          4.33137        3.22736        0.86014
C          3.02350        1.14988        0.86773
C          4.29165        1.79440        0.86652
C          5.59713        3.87952        0.85884
C          5.52204        1.08070        0.87127
C          6.78468        3.17139        0.86358
C          6.72731        1.74663        0.86985
C          8.12570        3.86333        0.86231
H         -0.02564        3.82376       -0.03458
H         -0.02893        3.83120        1.73663
H          0.75216        5.15892        0.84698
H          3.14204        5.04049        0.85042
H          0.89360        1.36677        0.86392
H          2.98750        0.05832        0.87253
H          5.61795        4.97192        0.85403
H          5.49841       -0.01125        0.87606
H          7.66009        1.17806        0.87354
H          8.71519        3.58582        1.75062
H          8.71860        3.57609       -0.02061
H          8.01625        4.95560        0.85615
