32
2-(4-(2-HYDROXYETHYL)-1-PIPERAZINYL)ETHANESULFONATE-1.gamout	Energy:   -1122.6123322
O         -5.31700       -1.27275       -0.68749
C         -4.16105       -1.09132        0.13304
H         -6.09936       -0.96855       -0.21610
C         -2.93939       -1.53620       -0.66773
H         -4.07028       -0.03311        0.43221
H         -4.22522       -1.70023        1.05119
N         -1.70635       -1.47934        0.09865
H         -2.88794       -0.94052       -1.60629
H         -3.10938       -2.57885       -0.97147
C         -1.16274       -0.13077        0.24273
C          0.07127       -0.13310        1.13969
H         -1.92263        0.52887        0.68437
H         -0.87907        0.28885       -0.74686
C         -0.66808       -2.36717       -0.43237
C          0.57754       -2.37014        0.44762
H         -0.36621       -2.06526       -1.45641
H         -1.07426       -3.38821       -0.48695
N          1.08305       -1.02684        0.63150
H         -0.24302       -0.40664        2.17701
H          0.48903        0.88427        1.18142
H          1.34140       -2.96869       -0.06199
H          0.33560       -2.85562        1.42440
C          2.34593       -0.90936        1.33755
C          3.51477       -1.71649        0.78267
H          2.23154       -1.18358        2.41888
H          2.63261        0.15160        1.30454
S          3.99312       -1.33831       -0.95889
H          4.40838       -1.48040        1.37460
H          3.36302       -2.80351        0.83201
O          5.35342       -1.95780       -1.07533
O          2.95522       -2.00684       -1.81193
O          3.99137        0.16002       -1.03029
