17
2-AMINO-2-METHYL-1-PROPANOL.gamout	Energy:    -288.6523565
O          1.97795        0.36316       -0.25463
N         -1.37107       -0.21135        1.25766
C         -0.37309       -0.10342        0.18241
C          1.00671        0.25025        0.77857
C         -0.83304        0.99996       -0.78099
C         -0.30475       -1.45672       -0.53895
H          1.29454       -0.53758        1.49958
H          0.91934        1.20219        1.33524
H         -0.12659        1.10992       -1.61322
H         -0.89823        1.96975       -0.26309
H         -1.82699        0.75708       -1.17897
H         -1.29338       -1.71907       -0.93810
H          0.42132       -1.42465       -1.36081
H          0.00603       -2.25332        0.15553
H         -1.13400       -0.93828        1.92899
H         -1.47635        0.66232        1.76833
H          2.83486        0.59143        0.11986
