24
2-BIPHENYLAMINE.gamout	Energy:    -517.9903858
N          0.78974       -2.20452       -0.61011
C          0.69656       -0.13975        0.71392
C         -0.76755       -0.27115        0.96462
C          1.41561       -1.08886       -0.06118
C          1.39273        0.96212        1.23870
C         -1.32120       -1.44136        1.51969
C         -1.63564        0.80120        0.68276
C          2.79746       -0.90017       -0.26001
C          2.76086        1.14316        1.03478
C          3.46266        0.19752        0.28044
C         -2.68998       -1.53233        1.78528
C         -3.00382        0.71032        0.94861
C         -3.53867       -0.45859        1.49846
H          0.83793        1.68546        1.83946
H         -0.66671       -2.27886        1.76614
H         -1.22751        1.71381        0.24486
H          3.34764       -1.63177       -0.85668
H          3.27181        2.00440        1.46715
H          4.53397        0.31523        0.10672
H         -3.09337       -2.44562        2.22740
H         -3.65589        1.55502        0.71727
H         -4.60775       -0.53134        1.70530
H         -0.21497       -2.16374       -0.72140
H          1.26434       -2.65248       -1.38206
