11
2-BROMOPROPANE.gamout	Energy:   -2692.1110831
C          0.05264       -0.02597        0.06780
C          1.56741       -0.02150       -0.04925
C         -0.58917        1.34561       -0.04872
Br        -0.47056       -0.84996        1.82257
H         -0.38853       -0.72312       -0.65449
H          1.98401       -1.03060        0.05961
H          2.02170        0.62924        0.71110
H          1.85063        0.36324       -1.04326
H         -1.67978        1.29309        0.06059
H         -0.36222        1.76815       -1.04176
H         -0.19374        2.03236        0.71290
