8
2-BROMO-2-CHLORO-1,1,1-TRIFLUOROETHANE.gamout	Energy:   -3409.6699661
C         41.00303       20.01350        0.03233
C         39.46249       20.00548        0.01966
F         38.93481       20.62300        1.07767
F         39.01507       20.60905       -1.09262
F         39.01542       18.73938        0.00316
Br        41.68266       21.84386       -0.03565
Cl        41.62661       19.11317        1.43512
H         41.35187       19.51337       -0.87644
