30
2-BUTYLNAPHTHALENE.gamout	Energy:    -542.4239523
C          8.50916        3.60819        0.84180
C          8.25212        2.36004       -0.02342
C          6.96563        1.64500        0.32276
C          9.81991        4.32261        0.49829
C          5.83229        1.76472       -0.46012
C          6.89653        0.84106        1.49865
C         10.07675        5.56243        1.35828
C          4.61089        1.11538       -0.12257
C          5.73412        0.19730        1.85829
C          4.55726        0.31211        1.06633
C          3.43891        1.23043       -0.92247
C          3.33878       -0.33975        1.40401
C          2.27211        0.58600       -0.56743
C          2.22067       -0.20712        0.60769
H          7.66318        4.30538        0.72259
H          8.51775        3.31841        1.90583
H          9.10155        1.66613        0.09356
H          8.23480        2.65503       -1.08401
H         10.65879        3.61563        0.61305
H          9.80691        4.61009       -0.56664
H          5.86494        2.37117       -1.36846
H          7.78853        0.73237        2.11935
H         11.02308        6.05176        1.08547
H          9.26992        6.30165        1.23782
H         10.13063        5.29997        2.42616
H          5.70369       -0.41777        2.76021
H          3.47741        1.84065       -1.82735
H          3.30223       -0.95050        2.30870
H          1.38192        0.68447       -1.19142
H          1.29219       -0.71271        0.87903
