12
2-BUTYNE-1,4-DIOL.gamout	Energy:    -306.0211513
C          4.03942        1.08909        1.04932
C          2.82896        1.14648        1.05713
C          1.36928        1.18336        1.07166
C          5.49883        1.04243        1.06144
O          0.90373        2.45262        0.62463
O          5.97711        0.28262       -0.04370
H          0.98973        0.37261        0.42212
H          1.01340        0.97420        2.09788
H          5.88542        2.07804        1.02540
H          5.83688        0.60038        2.01751
H         -0.06035        2.45184        0.62321
H          6.94110        0.27840       -0.02976
