17
2-CHLORO-2-METHYLBUTANE.gamout	Energy:    -656.9064835
C          0.51156        1.05923        0.02194
C          2.04553        0.98991       -0.04866
C          2.52417       -0.45994       -0.00548
C          2.62888        1.73259       -1.24868
Cl         2.72818        1.81363        1.48533
C         -0.12212        2.44944       -0.00463
H          0.19103        0.52217        0.92702
H          0.13841        0.47079       -0.83475
H          3.62010       -0.51066        0.00953
H          2.13987       -0.98010        0.88146
H          2.16521       -0.98966       -0.90234
H          3.72208        1.63872       -1.26891
H          2.37828        2.79931       -1.23143
H          2.22574        1.29504       -2.17606
H         -1.21326        2.36780        0.09696
H          0.08140        2.97439       -0.94826
H          0.25077        3.06935        0.82156
