15
2-CHLOROETHYL_ETHER.gamout	Energy:   -1152.1772366
Cl         1.07443       -0.17534       -0.03220
C          2.87699       -0.01675       -0.05543
C          3.27139        1.43752       -0.24994
O          4.68353        1.49024       -0.25730
C          5.20531        2.79311       -0.42597
C          6.71975        2.67752       -0.40494
Cl         7.47123        4.31097       -0.61061
H          3.24808       -0.64169       -0.87532
H          3.25045       -0.40318        0.89933
H          2.86173        2.05688        0.56879
H          2.86027        1.82165       -1.20107
H          4.86210        3.45855        0.38694
H          4.86687        3.22760       -1.38407
H          7.08173        2.04712       -1.22472
H          7.07270        2.27543        0.55125
