11
2-CHLOROPROPANE.gamout	Energy:    -578.3874111
C          0.66879        1.26893        1.80386
C          2.06207        1.83524        1.58307
C          3.04945        0.84610        0.98478
Cl         1.95000        3.31686        0.49258
H         -0.00620        2.02533        2.22440
H          0.23936        0.90232        0.86086
H          0.72767        0.42443        2.50911
H          2.45825        2.23975        2.52363
H          2.69032        0.46896        0.01685
H          4.03411        1.30734        0.83591
H          3.16608       -0.00960        1.66911
