14
2-CHLOROBUTANE.gamout	Energy:    -617.6460963
C          1.70946        1.84368        1.82705
C          2.02068        1.67196        3.31127
C          0.91349        0.98520        4.09446
Cl         2.36455        3.31334        4.07877
C          2.87295        2.34817        0.97398
H          1.38655        0.85490        1.45801
H          0.84005        2.51169        1.72341
H          2.96941        1.13213        3.43674
H          0.76679       -0.03325        3.70115
H         -0.03482        1.53289        3.99896
H          1.16648        0.91084        5.15940
H          3.71986        1.64533        1.00241
H          3.22985        3.32489        1.32764
H          2.56450        2.45850       -0.07508
