15
2-CHLOROBENZOTRICHLORIDE.gamout	Energy:   -2108.8173756
C          7.25773        3.04285       -1.02062
Cl         8.02635        3.68519        0.48629
Cl         6.36897        4.43055       -1.76621
Cl         8.54804        2.57637       -2.20010
C          6.35508        1.85337       -0.70502
C          6.84026        0.66011       -0.11808
C          4.98173        1.90993       -0.99549
Cl         8.52195        0.41608        0.30931
C          5.98071       -0.40666        0.15521
C          4.12249        0.84613       -0.72343
C          4.62218       -0.31934       -0.14513
H          4.57749        2.81135       -1.44615
H          6.39265       -1.30784        0.60728
H          3.06358        0.93700       -0.96689
H          3.96425       -1.16118        0.07441
