9
2-CHLOROETHANOL.gamout	Energy:    -614.2577186
Cl        -5.25234        1.93465        0.18304
C         -3.77586        2.94599       -0.09223
C         -2.52738        2.08050       -0.06274
H         -3.74907        3.70531        0.69784
H         -3.89264        3.43676       -1.06533
O         -1.43110        2.95518       -0.28557
H         -2.59199        1.30594       -0.84626
H         -2.44805        1.57453        0.91479
H         -0.60541        2.46015       -0.27774
