28
2-DECYNE.gamout	Energy:    -391.3151804
C          6.35459        3.00376        1.65005
C          4.95548        2.48319        2.00703
C          3.79705        3.34965        1.49425
C          6.73854        4.32144        2.35593
C          2.39991        2.82879        1.86338
C          8.09881        4.76846        2.04729
C          2.00574        1.50148        1.20318
C          9.22769        5.12179        1.77691
C          0.57706        1.06599        1.53841
C         10.58595        5.55632        1.45706
H          6.43201        3.14749        0.56025
H          7.10286        2.24166        1.91473
H          4.87115        2.38028        3.10362
H          4.85877        1.46592        1.59877
H          3.89803        4.37142        1.89173
H          3.87464        3.44114        0.39648
H          6.63627        4.18650        3.44684
H          6.02774        5.11737        2.08089
H          1.65484        3.59272        1.58523
H          2.33009        2.72375        2.96050
H          2.11310        1.60024        0.10943
H          2.70534        0.70766        1.50902
H          0.32048        0.11600        1.04795
H          0.44934        0.92769        2.62325
H         -0.15461        1.82097        1.21154
H         11.27660        5.35271        2.29024
H         10.62030        6.63749        1.25083
H         10.97216        5.03421        0.56777
