21
2-ETHYL-1-BUTANOL.gamout	Energy:    -311.8794306
C         18.00772       -0.05750        0.00556
C         19.18364        0.94007        0.02963
C         19.18953        1.80606        1.30514
C         20.51604        0.20471       -0.13377
C         16.63741        0.58077       -0.23739
C         20.07501        3.05522        1.24053
O         20.55569       -0.41337       -1.41625
H         18.20033       -0.79695       -0.78407
H         17.99705       -0.61402        0.95937
H         19.08196        1.60724       -0.84507
H         18.15896        2.12407        1.51927
H         19.49213        1.17745        2.16090
H         21.35721        0.91005       -0.02942
H         20.61351       -0.55242        0.66810
H         15.84771       -0.18414       -0.26012
H         16.36839        1.30552        0.54528
H         16.61868        1.10879       -1.20307
H         19.99681        3.64136        2.16783
H         21.13710        2.80877        1.09891
H         19.77081        3.70669        0.40697
H         21.36395       -0.92753       -1.50857
