20
2-ETHYL_BUTYRIC_ACID.gamout	Energy:    -385.8537053
C         51.29491       40.83626       -0.60120
C         50.26288       39.87045       -0.04449
C         50.81425       38.42919        0.01309
C         49.75042       40.33122        1.33721
O         52.40287       40.91439        0.17463
O         51.18242       41.48174       -1.61622
C         51.26354       37.86835       -1.33737
C         49.11131       41.72154        1.34274
H         49.43119       39.90614       -0.76403
H         51.64843       38.39622        0.72991
H         50.01893       37.79167        0.42991
H         49.01415       39.58640        1.67731
H         50.58407       40.29708        2.05460
H         53.01156       41.54520       -0.24110
H         51.60787       36.83011       -1.23143
H         50.44063       37.87865       -2.06749
H         52.09354       38.44950       -1.76593
H         48.73154       41.97119        2.34327
H         49.83132       42.50278        1.05775
H         48.26881       41.77400        0.63741
