27
2-ETHYL-6-METHYLNAPHTHALENE.gamout	Energy:    -503.1687609
C          1.32840        1.24280        0.06042
C          2.49250        0.54572        0.32872
C          2.40189       -0.85679        0.56611
C          1.19134       -1.51369        0.52858
C         -0.01511       -0.81210        0.25033
C         -1.28412       -1.45533        0.20470
C         -2.44672       -0.75765       -0.06481
C         -2.35599        0.64589       -0.30014
C         -1.14619        1.30222       -0.26287
C          0.06085        0.59928        0.01175
C         -3.79247       -1.43816       -0.11507
C          3.84139        1.23180        0.34542
C          4.66773        0.98449       -0.92819
H          1.37137        2.31995       -0.11917
H          3.31324       -1.41702        0.78705
H          1.14450       -2.58807        0.71840
H         -1.32749       -2.53148        0.38908
H         -3.26905        1.20658       -0.51334
H         -1.09988        2.37786       -0.44558
H         -4.26123       -1.31641       -1.10458
H         -4.48473       -1.00547        0.62479
H         -3.70882       -2.51353        0.08929
H          4.41605        0.88401        1.21954
H          3.69617        2.31428        0.47821
H          4.85314       -0.08912       -1.07919
H          5.64161        1.49272       -0.86633
H          4.13893        1.35941       -1.81669
