17
2-ETHYLPYRIDINE.gamout	Energy:    -326.4884207
C          2.24942       -4.67601        0.59786
C          3.20430       -4.02410       -0.41383
C          3.19991       -2.51454       -0.32953
C          4.30453       -1.79232        0.14968
N          2.07525       -1.89555       -0.72021
C          4.23185       -0.40036        0.22159
C          2.00816       -0.56577       -0.65042
C          3.05767        0.23357       -0.18695
H          2.23870       -5.76905        0.47601
H          2.55280       -4.44913        1.63099
H          1.22745       -4.29959        0.45218
H          2.89950       -4.31084       -1.43243
H          4.22756       -4.39961       -0.26192
H          5.20808       -2.32010        0.45957
H          5.08076        0.17945        0.58997
H          1.07100       -0.10832       -0.98307
H          2.95328        1.31897       -0.15143
