24
2-ETHYL-P-XYLENE.gamout	Energy:    -388.9836339
C          2.14192        5.56465        2.88206
C          2.55217        5.14235        1.46074
C          2.97257        3.68930        1.36536
C          2.03343        2.65666        1.13588
C          4.32333        3.35460        1.53597
C          0.56679        2.95043        0.91878
C          2.49719        1.33494        1.09480
C          4.78774        2.03196        1.50082
C          3.84603        1.02076        1.27413
C          6.24827        1.71597        1.71984
H          1.29707        4.96640        3.25226
H          1.84482        6.62384        2.90664
H          2.97675        5.42668        3.58441
H          3.38711        5.77847        1.12901
H          1.72089        5.34372        0.76892
H          5.04433        4.16042        1.70061
H          0.12342        3.49243        1.76783
H         -0.00198        2.02131        0.78518
H          0.40394        3.57096        0.02297
H          1.78328        0.52863        0.91130
H          4.16742       -0.02206        1.23081
H          6.52066        0.74728        1.27839
H          6.48780        1.66645        2.79508
H          6.89709        2.48626        1.27813
