27
2-ETHYL-1-HEXANOL.gamout	Energy:    -390.3947034
C          3.67590        2.25077        2.09187
C          4.96767        2.32896        2.93312
C          5.01408        3.58177        3.83449
C          6.21104        2.19588        2.05140
C          3.29215        0.83100        1.65269
C          4.97795        4.92994        3.10676
O          7.35938        2.08167        2.88716
C          2.04217        0.74939        0.76374
C          0.75033        1.22924        1.43345
H          2.85506        2.67888        2.68667
H          3.76534        2.89401        1.19893
H          4.98046        1.45678        3.60954
H          5.91669        3.52892        4.45932
H          4.15667        3.52471        4.52479
H          6.11831        1.30493        1.40737
H          6.30023        3.07524        1.38788
H          4.13438        0.37237        1.11080
H          3.13753        0.20953        2.55183
H          5.03020        5.75730        3.82899
H          4.05329        5.05908        2.52490
H          5.82661        5.04695        2.41724
H          8.15241        2.00505        2.34731
H          2.21453        1.32827       -0.15972
H          1.91207       -0.29679        0.44362
H          0.57155        0.68666        2.37502
H         -0.11899        1.06295        0.78102
H          0.78355        2.30301        1.66779
