20
2-ETHYL-1-NITROBENZENE.gamout	Energy:    -514.7377506
C          7.13469        3.10119       -1.01811
C          7.39193        4.01382        0.19314
C          6.30597        1.87778       -0.68245
C          6.80095        0.61297       -0.29924
C          4.90533        1.98550       -0.76511
N          8.24819        0.34836       -0.17571
C          5.95945       -0.47284       -0.02441
C          4.05201        0.92298       -0.47201
O          8.62350       -0.81192       -0.28045
O          8.99699        1.29304        0.03854
C          4.57993       -0.31705       -0.09815
H          6.58240        3.66956       -1.78171
H          8.09325        2.80895       -1.46073
H          7.95954        4.90226       -0.11885
H          7.97184        3.48958        0.96248
H          6.44601        4.35265        0.64052
H          4.48071        2.94175       -1.07594
H          6.40951       -1.42572        0.24673
H          2.97199        1.06093       -0.54407
H          3.92368       -1.15760        0.12903
