21
2-ETHYL-1-PENTENE.gamout	Energy:    -274.7767716
C          0.71431        0.73908        0.92723
C          1.38818        2.10299        0.75345
C          2.06524        2.65975        2.02988
C          2.96838        3.81342        1.67405
C          1.02477        3.07344        3.09591
C          4.29303        3.85535        1.84672
C          1.62438        3.47597        4.44465
H          1.44339       -0.02168        1.24611
H          0.27297        0.39918       -0.02107
H         -0.09338        0.76324        1.67255
H          0.65262        2.84161        0.39113
H          2.15157        2.02378       -0.03552
H          2.69231        1.85670        2.45709
H          2.46782        4.68004        1.22298
H          0.32390        2.23973        3.25015
H          0.42231        3.90532        2.69192
H          4.87991        4.72588        1.54846
H          4.83778        3.01842        2.29165
H          0.83546        3.74806        5.16016
H          2.30371        4.33415        4.34485
H          2.20182        2.64640        4.88144
