24
2-HEPTANOL.gamout	Energy:    -351.1442561
C          3.36414        1.54219        0.09517
C          2.09180        0.69111        0.05350
C          3.13195        3.05284        0.04011
C          2.38140       -0.81252        0.00354
C          2.41222        3.61221        1.26647
O          4.42640        3.64340       -0.10671
C          1.12094       -1.68178       -0.03432
C          1.41504       -3.18227       -0.08578
H          3.94474        1.31107        1.00379
H          4.00752        1.27980       -0.75923
H          1.49139        0.97482       -0.82847
H          1.46161        0.90248        0.93326
H          2.53062        3.27780       -0.86247
H          2.99233       -1.09448        0.87852
H          3.00173       -1.03244       -0.88268
H          2.30364        4.70509        1.19034
H          1.40249        3.18873        1.36464
H          2.98268        3.38412        2.17881
H          4.34774        4.60322       -0.13361
H          0.51377       -1.39490       -0.90944
H          0.50089       -1.45987        0.85089
H          0.48768       -3.77250       -0.11527
H          1.98991       -3.50476        0.79592
H          2.00485       -3.44108       -0.97873
