22
2-HEPTANONE.gamout	Energy:    -349.9445053
O         -2.12899        4.35961       -2.02378
C          1.11606        1.51698       -0.08369
C         -0.25542        1.85685       -0.67563
C          1.54150        0.06689       -0.33625
C         -0.66390        3.32413       -0.44522
C          2.90983       -0.28049        0.25347
C         -2.02113        3.64873       -1.04467
C         -3.25518        3.03845       -0.39481
H          1.87319        2.19888       -0.50730
H          1.10418        1.71237        1.00281
H         -0.24519        1.65570       -1.75947
H         -1.01321        1.18282       -0.24315
H          0.77748       -0.61106        0.08054
H          1.55077       -0.12029       -1.42320
H          0.07197        4.00009       -0.90184
H         -0.69498        3.52675        0.63946
H          2.91927       -0.14248        1.34572
H          3.17967       -1.32579        0.04565
H          3.69867        0.35997       -0.17023
H         -3.96314        3.84510       -0.15833
H         -3.74850        2.37533       -1.12067
H         -3.02935        2.46951        0.51607
