21
2-HEXANOL.gamout	Energy:    -311.8864597
C          1.46306        3.77439        1.96149
C          2.19631        2.44354        1.78593
C          3.72214        2.57231        1.83356
C          4.44422        1.23516        1.65359
C          5.96864        1.33896        1.65550
C          6.64624        0.00265        1.35427
O          6.35865        1.83616        2.93921
H          1.71202        4.24021        2.92751
H          1.73959        4.48709        1.16897
H          0.37226        3.63951        1.92509
H          1.90128        1.98510        0.82611
H          1.87027        1.73773        2.56866
H          4.05502        3.27067        1.04534
H          4.02676        3.02290        2.79087
H          4.14657        0.53569        2.45318
H          4.13653        0.77307        0.70073
H          6.26718        2.07145        0.88000
H          6.38266       -0.74326        2.11829
H          6.33634       -0.37871        0.36961
H          7.74183        0.11009        1.33938
H          7.31523        1.94508        2.96820
