21
2-HEXANETHIOL.gamout	Energy:    -634.7710371
C         33.93031       30.03534       -0.08167
C         32.62529       29.22434       -0.05938
C         33.72727       31.55491       -0.03264
C         31.75002       29.42343       -1.29608
S         33.11547       27.44147        0.14526
C         35.04916       32.32828        0.04001
C         34.86382       33.84657        0.08248
H         34.54643       29.73527        0.78125
H         34.50469       29.76704       -0.98430
H         32.05774       29.50171        0.84157
H         33.16482       31.89247       -0.91786
H         33.10780       31.81324        0.84401
H         30.83946       28.81086       -1.23987
H         31.43616       30.47479       -1.38551
H         32.29501       29.14259       -2.20887
H         31.86967       26.91367        0.12401
H         35.60926       32.00091        0.93166
H         35.67281       32.05849       -0.82873
H         35.83136       34.36632        0.13525
H         34.33783       34.20814       -0.81470
H         34.27231       34.15011        0.96015
