16
2-HEXYNE.gamout	Energy:    -234.2823169
C          3.52684        1.58236        1.25949
C          4.58817        2.15227        1.11011
C          5.87210        2.82741        0.93095
C          2.23625        0.90730        1.42999
C          1.01456        1.77660        1.06446
C          0.84823        3.01553        1.94541
H          5.77585        3.69218        0.25610
H          6.62182        2.14754        0.49760
H          6.26752        3.19491        1.89060
H          2.14159        0.56970        2.47684
H          2.22493       -0.00669        0.81357
H          0.11584        1.14394        1.13896
H          1.09974        2.08006        0.00936
H         -0.02880        3.60209        1.63600
H          1.73327        3.66468        1.88204
H          0.71177        2.73560        3.00163
