11
2-IODOPROPANE.gamout	Energy:    -416.0735761
I         -0.67157        0.00000        0.00981
C          1.52131       -0.00000       -0.40024
C          2.14037        1.27694        0.14154
C          2.14038       -1.27694        0.14154
H          1.52900        0.00000       -1.49638
H          2.06948        1.32410        1.23740
H          3.20965        1.29686       -0.13171
H          1.66388        2.17141       -0.27856
H          1.66388       -2.17142       -0.27856
H          3.20965       -1.29686       -0.13172
H          2.06948       -1.32409        1.23740
