25
2-ISOPROPYL-4-METHYLPHENOL.gamout	Energy:    -464.1245553
O          1.01355       -2.35961       -0.02347
C          2.01618        0.30330        0.01350
C          0.52783       -0.02376       -0.00150
C          2.42593        1.04560        1.29785
C          2.44510        1.07573       -1.24669
C         -0.44216        0.98666        0.00224
C          0.07566       -1.35746       -0.01969
C         -1.82199        0.72901       -0.01109
C         -1.29302       -1.64337       -0.03295
C         -2.23166       -0.60927       -0.02862
C         -2.81830        1.86422       -0.00649
H          2.55128       -0.65503        0.00591
H          1.93990        2.03068        1.36898
H          3.51399        1.20924        1.31809
H          2.15093        0.46992        2.19277
H          2.18331        0.52178       -2.15909
H          3.53337        1.23932       -1.24679
H          1.96045        2.06256       -1.30155
H         -0.10725        2.02645        0.01636
H         -1.62861       -2.68384       -0.04696
H         -3.29599       -0.85219       -0.03911
H         -2.68798        2.51694       -0.88428
H         -3.85106        1.49087       -0.01821
H         -2.70137        2.49823        0.88677
H          0.57923       -3.21916       -0.03604
