15
2-MERCAPTOBENZOTHIAZOLE.gamout	Energy:   -1120.1460432
C         -0.93919       -0.06917        0.64853
C         -0.37989       -1.33615        0.89727
C         -0.15204        0.98476        0.18163
C          0.97531       -1.57564        0.68447
C          1.78647       -0.53071        0.21473
C          1.20797        0.74189       -0.03126
S          2.45622        1.83859       -0.60684
N          3.14288       -0.61867       -0.04300
C          3.62118        0.49937       -0.46492
S          5.32989        0.67766       -0.87338
H         -2.00401        0.09481        0.82252
H         -1.01905       -2.14177        1.26213
H         -0.59178        1.96429       -0.00850
H          1.42215       -2.55240        0.87257
H          5.26523        1.97954       -1.23685
