17
2-METHYLBUTYRIC_ACID.gamout	Energy:    -346.5958798
C         51.82276       30.89688        0.17553
C         50.62503       30.03053       -0.18245
C         49.30291       30.79676       -0.03363
C         50.82277       29.48285       -1.61123
O         52.87171       30.15649        0.60498
O         51.88850       32.09840        0.07043
C         48.96019       31.18355        1.40654
H         50.63501       29.17662        0.51336
H         49.34465       31.69544       -0.66715
H         48.50230       30.16070       -0.44252
H         49.99291       28.80902       -1.86675
H         51.76016       28.91840       -1.70040
H         50.83593       30.30180       -2.34455
H         53.61227       30.76087        0.77303
H         47.98798       31.69416        1.45216
H         48.90132       30.29354        2.05198
H         49.71215       31.86418        1.82983
