15
2-METHYL-1-PROPANOL.gamout	Energy:    -233.3653315
O          1.06024        1.30495        0.85453
C         -1.27186        0.82550        0.50254
C          0.13535        0.24464        0.63803
C         -1.38584        1.75811       -0.70868
C         -2.31122       -0.30156        0.45627
H         -1.44868        1.42400        1.41300
H          0.16287       -0.46778        1.48249
H          0.39388       -0.31625       -0.28117
H         -2.38620        2.21259       -0.75801
H         -1.22365        1.20135       -1.64622
H         -0.64334        2.56503       -0.65947
H         -3.33011        0.10877        0.41097
H         -2.24765       -0.94665        1.34538
H         -2.17007       -0.93762       -0.43249
H          1.94976        0.95071        0.95179
