30
2-METHYL-1-NONENE.gamout	Energy:    -392.5556707
C          5.60948        4.77599        3.19817
C          4.48284        4.36130        4.14972
C          6.41078        5.98348        3.69053
C          3.67700        3.15466        3.65748
C          2.56059        2.73865        4.62290
C          1.75029        1.49687        4.21388
C          0.65002        1.72372        3.15270
C          1.94347        1.01423        1.04612
C          1.09696        2.05061        1.74273
C          0.71611        3.17952        1.12693
H          6.28962        3.92022        3.04952
H          5.17961        4.99930        2.20723
H          4.91032        4.13672        5.14274
H          3.80134        5.21715        4.29874
H          7.20963        6.25256        2.98417
H          6.88091        5.77712        4.66477
H          5.76259        6.86498        3.81481
H          3.24926        3.38399        2.67063
H          4.36079        2.30020        3.51121
H          3.01362        2.54607        5.60994
H          1.87006        3.58747        4.76948
H          2.43596        0.69908        3.88447
H          1.24729        1.10253        5.11056
H          0.04495        0.80032        3.10655
H         -0.02450        2.51706        3.51003
H          1.43835        0.03400        1.04601
H          2.90818        0.87173        1.55821
H          2.15108        1.29583        0.00561
H          0.09369        3.92296        1.62958
H          1.01097        3.39945        0.09868
