18
2-METHYLBENZOFURAN.gamout	Energy:    -422.4570811
C         -1.85712        1.07620       -1.92003
C         -2.97766        0.63353       -1.04999
C         -3.19794       -0.49861       -0.32390
O         -4.02794        1.51495       -0.92278
C         -4.48273       -0.33591        0.31737
C         -4.94496        0.93172       -0.09374
C         -5.28623       -1.10247        1.17880
C         -6.16143        1.47531        0.30588
C         -6.51013       -0.57625        1.59191
C         -6.94295        0.69439        1.16234
H         -2.20562        1.26554       -2.94745
H         -1.41162        2.01129       -1.54577
H         -1.07762        0.30520       -1.95142
H         -2.52416       -1.34842       -0.25417
H         -4.96133       -2.08779        1.51764
H         -6.48296        2.45984       -0.03475
H         -7.14713       -1.15762        2.26078
H         -7.90629        1.07598        1.50484
