13
2-METHACRYLAMIDE.gamout	Energy:    -286.2604434
C          3.31235        1.31278        1.88267
N          3.99318        2.23605        2.62689
O          3.89033        0.48009        1.19838
C          1.80346        1.35774        1.95060
C          1.10099        0.79208        0.74657
C          1.15953        1.81052        3.03768
H          5.00242        2.23193        2.56990
H          3.53693        3.03632        3.03762
H          1.34668        1.36932       -0.15864
H          0.01254        0.79649        0.88549
H          1.44184       -0.23652        0.56056
H          0.06902        1.80286        3.09205
H          1.68640        2.16384        3.92562
