32
2-METHYLNONANE.gamout	Energy:    -393.7818227
C          4.64675       -0.89582        0.03215
C          3.48155        0.06732        0.29571
C          3.73056        1.41695       -0.39152
C          2.14193       -0.56823       -0.12356
C          0.88928        0.21573        0.28022
C         -0.41808       -0.45651       -0.14996
C         -1.67150        0.32200        0.26010
C         -2.98191       -0.33866       -0.17647
C         -4.23338        0.44266        0.23684
C         -5.54167       -0.21809       -0.20146
H          5.60241       -0.46536        0.36635
H          4.50487       -1.85241        0.55655
H          4.73957       -1.11378       -1.04398
H          3.43730        0.24303        1.38599
H          3.78858        1.28903       -1.48459
H          2.93628        2.14543       -0.18005
H          4.68100        1.85989       -0.05893
H          2.14591       -0.71618       -1.21874
H          2.07907       -1.57831        0.31539
H          0.88669        0.35043        1.37623
H          0.92015        1.22963       -0.14965
H         -0.41310       -0.58684       -1.24623
H         -0.46590       -1.47429        0.27458
H         -1.67477        0.45023        1.35671
H         -1.62040        1.34084       -0.16198
H         -2.97762       -0.46411       -1.27359
H         -3.03452       -1.35831        0.24380
H         -4.23326        0.56711        1.33314
H         -4.17642        1.46181       -0.18163
H         -5.58689       -0.32211       -1.29672
H         -5.64137       -1.22536        0.23166
H         -6.41519        0.37041        0.11472
