20
2-METHYLPIPERIDINE.gamout	Energy:    -290.8309076
C         -1.29667       -0.07483        2.43383
C         -2.19187        0.20940        1.23044
C         -3.32504       -0.81743        1.08972
N         -1.39509        0.20387        0.00286
C         -4.16655       -0.56240       -0.16788
C         -2.15142        0.54548       -1.19729
C         -3.27591       -0.46917       -1.41352
H         -0.50295        0.68299        2.52239
H         -1.87962       -0.05986        3.36598
H         -0.81932       -1.06071        2.33303
H         -2.66923        1.20580        1.38350
H         -2.87471       -1.82288        1.03936
H         -3.96001       -0.78714        1.98898
H         -0.57406        0.79382        0.09981
H         -4.91958       -1.35553       -0.29064
H         -4.72230        0.38394       -0.04667
H         -1.46583        0.54468       -2.05729
H         -2.59506        1.56488       -1.13407
H         -2.82622       -1.45349       -1.62192
H         -3.87026       -0.18554       -2.29590
