16
2-METHYL-1,4-PENTADIENE.gamout	Energy:    -234.2960701
C          3.28721        2.08443        1.77529
C          1.81074        1.81305        2.01498
C          4.18890        1.02135        2.35517
C          1.34370        1.89015        3.44562
C          0.98212        1.51829        1.00360
C          5.12583        1.22095        3.28662
H          3.46307        2.15210        0.68960
H          3.55976        3.06130        2.21073
H          4.03469        0.00959        1.96280
H          1.51034        2.90036        3.85668
H          0.27576        1.65305        3.53512
H          1.91270        1.19615        4.08425
H         -0.07732        1.31608        1.17354
H          1.33493        1.47193       -0.02883
H          5.74446        0.40153        3.65661
H          5.31208        2.21253        3.70771
