21
2-METHYL-1-PENTANOL.gamout	Energy:    -311.8809597
C          3.12423        2.08439        2.85343
C          1.95519        1.80861        1.88738
C          1.37817        3.11034        1.32773
C          0.86333        0.96226        2.55204
C          4.42608        2.55407        2.19169
O          0.45577        2.79975        0.28669
C          5.57149        2.75034        3.18729
H          2.80740        2.82401        3.61103
H          3.33308        1.15839        3.41399
H          2.34976        1.24552        1.02344
H          0.87270        3.66455        2.14166
H          2.18713        3.75039        0.93708
H          1.25969       -0.01629        2.85985
H          0.47357        1.46425        3.45263
H          0.02282        0.79241        1.86728
H          4.72410        1.81581        1.42834
H          4.25760        3.49761        1.64889
H          0.04485        3.60683       -0.03918
H          5.31696        3.50983        3.94296
H          5.79796        1.81479        3.72186
H          6.49099        3.07781        2.68139
