24
2-METHYL-2-HEPTENE.gamout	Energy:    -314.0428146
C          0.71828        1.43887        1.03419
C          2.01864        1.42321        1.84137
C          2.77380        2.75636        1.78845
C          4.06258        2.80603        2.63694
C          5.12591        1.82633        2.21258
C          6.26829        2.07874        1.54656
C          7.22296        0.96443        1.19177
C          6.71076        3.44834        1.09432
H          0.19722        0.47202        1.09132
H          0.91534        1.65095       -0.02814
H          0.02946        2.21361        1.40556
H          2.66828        0.61638        1.46720
H          1.79531        1.17674        2.89380
H          3.02753        2.98806        0.74023
H          2.10069        3.56063        2.13157
H          4.45234        3.83299        2.61721
H          3.79356        2.60166        3.68846
H          4.92918        0.78101        2.47349
H          7.37640        0.90778        0.10045
H          8.21703        1.13941        1.63790
H          6.85979       -0.01249        1.53766
H          6.82543        3.47316       -0.00269
H          6.01393        4.24541        1.37598
H          7.70021        3.69618        1.51497
