15
2-METHYL-1-BUTENE.gamout	Energy:    -196.2646564
C          1.15870        1.18137        0.16143
C          0.54626       -0.17347       -0.09956
C          1.23068       -1.30858        0.10327
C         -0.88073       -0.18895       -0.60812
C         -1.91553        0.34723        0.39448
H          1.13196        1.80432       -0.74840
H          0.60020        1.73271        0.93464
H          2.20199        1.09523        0.49133
H          0.78542       -2.28613       -0.09471
H          2.25940       -1.30081        0.46949
H         -0.93611        0.41814       -1.52953
H         -1.14754       -1.21673       -0.89508
H         -1.91250       -0.24938        1.31855
H         -1.71578        1.39354        0.66667
H         -2.92751        0.30557       -0.03456
