16
2-METHYLTHIACYCLOPENTANE.gamout	Energy:    -594.3121902
C          2.33216       -0.92486        5.11957
C          1.82049        0.20426        4.23163
C          2.05503       -0.00493        2.72964
S          2.64335        1.83052        4.63245
C          1.96979        1.36459        2.05116
C          2.85897        2.31449        2.86040
H          2.15252       -0.71419        6.18306
H          3.41195       -1.07532        4.97852
H          1.81149       -1.86396        4.87220
H          0.74332        0.34297        4.41227
H          3.05596       -0.44007        2.57554
H          1.32028       -0.71513        2.31945
H          2.28495        1.32375        0.99749
H          0.92879        1.72304        2.07051
H          2.57630        3.36785        2.73778
H          3.91675        2.20265        2.58282
