24
2-METHYL-2-HEXANOL.gamout	Energy:    -351.1472254
C          2.56810       -1.02599       -0.09115
C          1.43823        0.01472       -0.05373
C          1.62789        1.04934       -1.17275
C          0.07626       -0.70131       -0.14494
C         -1.16354        0.19200       -0.05000
C         -2.46671       -0.61257        0.01548
C         -3.71581        0.26184        0.14093
O          1.43993        0.67366        1.22403
H          3.54976       -0.54002        0.02116
H          2.44477       -1.74965        0.72572
H          2.57296       -1.57137       -1.04640
H          1.54354        0.57882       -2.16358
H          0.88017        1.84904       -1.10063
H          2.62572        1.50984       -1.10647
H          0.05401       -1.27954       -1.08305
H          0.04507       -1.43676        0.67513
H         -1.07902        0.82360        0.84734
H         -1.20863        0.87786       -0.91182
H         -2.55058       -1.24968       -0.88164
H         -2.41560       -1.30384        0.87346
H         -3.67368        0.88082        1.05038
H         -3.81377        0.94181       -0.71959
H         -4.62980       -0.34756        0.19226
H          2.28537        1.11736        1.35660
