21
2-METHYL-3-PENTANOL.gamout	Energy:    -311.8843668
C         -1.53244        1.63168       -0.05123
C         -1.16696        0.18435        0.30935
C         -2.24411       -0.78246       -0.20098
C          0.23318       -0.21671       -0.20977
C          1.37203        0.67159        0.31018
C          2.74739        0.29147       -0.24162
O          0.50633       -1.59369        0.06528
H         -0.86460        2.36637        0.41698
H         -1.49380        1.78440       -1.14176
H         -2.55553        1.86333        0.27795
H         -1.13095        0.10824        1.41331
H         -2.31953       -0.73295       -1.29904
H         -2.02126       -1.82105        0.07102
H         -3.22795       -0.51822        0.21314
H          0.21849       -0.16646       -1.31223
H          1.15758        1.71908        0.05471
H          1.37739        0.61751        1.41407
H          2.99927       -0.74989       -0.00199
H          2.77216        0.39670       -1.33697
H          3.53073        0.94049        0.17507
H          0.55995       -1.72027        1.02089
