16
2-METHYL-TRANS-1,3-PENTADIENE.gamout	Energy:    -234.3028531
C          0.97698        0.99104        1.15211
C          1.76941        2.07547        1.07411
C          1.20121        3.46245        0.88189
C          3.24221        2.00131        1.18976
C          4.02363        1.00020        0.75234
C          5.51452        0.94182        0.89885
H         -0.10560        1.06958        1.03751
H          1.38367       -0.00316        1.34436
H          1.50250        4.12395        1.71121
H          1.58422        3.92136       -0.04441
H          0.10442        3.44886        0.83524
H          3.72758        2.87092        1.65070
H          3.55231        0.15567        0.23749
H          6.00846        0.85720       -0.08342
H          5.90730        1.83417        1.40669
H          5.82005        0.05532        1.48024
