19
2-METHYL-1,5-HEXADIENE.gamout	Energy:    -273.5543946
C          2.28218        2.00072        3.00448
C          1.34630        1.92182        1.81708
C          3.77639        1.83702        2.63784
C          1.41599        3.05671        0.82535
C          0.49546        0.89721        1.66333
C          4.68218        1.94518        3.83175
C          5.50063        0.98610        4.27498
H          2.14859        2.97633        3.50585
H          2.01378        1.22819        3.73963
H          4.05530        2.61478        1.90666
H          3.92430        0.86494        2.14261
H          0.68236        2.93471        0.01784
H          2.41490        3.13142        0.36621
H          1.22524        4.02208        1.32335
H          0.44474        0.08452        2.39091
H         -0.17949        0.83771        0.80712
H          4.64377        2.89670        4.37645
H          6.12817        1.13366        5.15552
H          5.57402        0.01964        3.76918
