24
2-METHYL-CIS-3-HEPTENE.gamout	Energy:    -314.0399593
C          1.03677       -1.14728       -0.61082
C          1.95792       -0.11099        0.05810
C          1.99047       -0.31650        1.55355
C          1.64668        0.54873        2.51950
C          1.15435        1.96297        2.36935
C          2.04266        2.99040        3.09445
C          1.52624        4.42480        2.97078
C          3.37905       -0.17269       -0.53090
H          0.99400       -0.99047       -1.69917
H          0.01409       -1.08655       -0.21320
H          1.40672       -2.16971       -0.43420
H          1.54723        0.88783       -0.15264
H          2.33781       -1.30845        1.86819
H          1.74173        0.20310        3.55542
H          0.13228        2.03218        2.78514
H          1.07078        2.23866        1.30802
H          3.06658        2.92333        2.69310
H          2.11506        2.71241        4.15921
H          1.47426        4.73809        1.91648
H          2.18062        5.13349        3.49876
H          0.51515        4.52075        3.39592
H          3.83807       -1.15543       -0.33965
H          4.02843        0.59368       -0.08508
H          3.36036       -0.01840       -1.62041
