27
2-METHYL-1-OCTENE.gamout	Energy:    -353.2960532
C          2.55794        1.29499        0.97557
C          3.96871        1.48356        1.57258
C          4.42828        2.94127        1.68852
C          1.43772        1.93975        1.77814
C          5.83793        3.12035        2.27150
C          0.88386        3.24037        1.25320
C          0.96520        1.36762        2.89468
C          6.97757        2.60610        1.38275
C          8.36528        2.87211        1.97183
H          2.36506        0.21467        0.89223
H          2.54957        1.69134       -0.05299
H          3.99461        1.02139        2.57334
H          4.67752        0.91665        0.94894
H          4.38257        3.41831        0.69337
H          3.71714        3.48762        2.32693
H          5.89152        2.62140        3.25528
H          6.00290        4.19300        2.46794
H          1.67661        3.99660        1.13772
H          0.44355        3.09523        0.25229
H          0.10788        3.65014        1.91361
H          1.35482        0.41299        3.25640
H          0.17336        1.83070        3.48694
H          6.90106        3.08358        0.39082
H          6.86107        1.52424        1.21130
H          8.53428        3.95025        2.11845
H          8.47989        2.38190        2.95108
H          9.16103        2.49473        1.31346
