20
2-METHYLINDENE.gamout	Energy:    -386.5687052
C          2.96266        2.60007        1.81722
C          2.97206        2.66421        3.23064
C          1.91478        3.24553        3.92180
C          4.24803        2.02652        3.72870
C          1.88557        3.12310        1.09375
C          4.19650        1.93880        1.38161
C          0.82297        3.70762        1.79461
C          0.83453        3.76962        3.19371
C          4.95203        1.59940        2.45355
C          6.28031        0.91141        2.45994
H          1.91836        3.29654        5.01308
H          4.05324        1.16466        4.39144
H          4.86566        2.72953        4.31560
H          1.86959        3.07827        0.00301
H          4.45991        1.75129        0.33986
H         -0.02495        4.12009        1.24416
H         -0.00294        4.22907        3.72194
H          7.05139        1.53332        2.94519
H          6.61987        0.68349        1.44086
H          6.23801       -0.03455        3.02558
