12
2-METHYLFURAN.gamout	Energy:    -269.0032786
C         -5.70142       -0.70948        0.04444
O         -5.16588       -1.80452       -0.56465
C         -6.95706       -0.47531       -0.43187
C         -6.08830       -2.28661       -1.44924
C         -7.20910       -1.50313       -1.40535
C         -5.70670       -3.49296       -2.23185
H         -5.07575       -0.21577        0.78038
H         -7.62256        0.32864       -0.12899
H         -8.10944       -1.64242       -1.99797
H         -5.48700       -4.34663       -1.57140
H         -6.52787       -3.77706       -2.90179
H         -4.80917       -3.30811       -2.84292
