19
2-METHYL-3-HEXYNE.gamout	Energy:    -273.5406091
C         16.92880        0.13910        0.35864
C         18.22381        0.82259        0.28961
C         15.80863        0.84822       -0.42033
C         19.28708        1.40542        0.21829
C         20.59090        2.08495        0.15887
C         20.94546        2.73619        1.50997
C         21.69941        1.12468       -0.31623
H         17.04701       -0.88969       -0.02084
H         16.63323        0.03677        1.41628
H         14.86673        0.28778       -0.33063
H         15.64602        1.86403       -0.03388
H         16.06381        0.92850       -1.48628
H         20.50918        2.89288       -0.58948
H         21.89957        3.27860        1.43423
H         20.16696        3.44501        1.82315
H         21.04511        1.97090        2.29338
H         22.65657        1.65970       -0.40459
H         21.45237        0.68962       -1.29395
H         21.82981        0.30067        0.40042
