26
2-METHYLHEPTANE.gamout	Energy:    -315.2643114
C          5.20440        2.35569        1.96292
C          4.10389        1.32994        2.25340
C          6.39905        1.81908        1.15021
C          2.92070        1.90855        3.03573
C          7.26401        2.97063        0.62192
C          7.24676        0.82297        1.95461
C          1.79392        0.90049        3.28172
C          0.60716        1.48298        4.05209
H          5.57777        2.77478        2.91452
H          4.75536        3.20063        1.41459
H          4.51609        0.47498        2.81368
H          3.73873        0.91751        1.29643
H          5.98532        1.28341        0.27643
H          2.51529        2.78033        2.49280
H          3.28037        2.29719        4.00466
H          6.68049        3.64618       -0.02085
H          7.67333        3.56743        1.45290
H          8.11319        2.59472        0.03199
H          8.06285        0.41118        1.34277
H          6.64991       -0.02374        2.32075
H          7.69814        1.31780        2.82958
H          2.19860        0.03240        3.82940
H          1.44600        0.50832        2.31101
H          0.91612        1.83949        5.04693
H          0.16779        2.33774        3.51480
H         -0.18492        0.73390        4.19498
