24
2-METHYL-1-HEPTENE.gamout	Energy:    -314.0383615
C          1.81278        0.96995        1.65644
C          0.79772        2.06822        1.98838
C          3.19238        1.14647        2.30668
C          6.31179        0.76232        0.84792
C          6.44661        1.54447        1.92765
C          7.72374        1.56572        2.73073
C          5.37802        2.49804        2.42936
C          3.96824        2.38537        1.83783
H          1.40109       -0.00233        1.97197
H          1.93659        0.90524        0.56168
H          1.11770        3.05207        1.61543
H          0.65232        2.15475        3.07680
H         -0.18112        1.84941        1.53687
H          3.79364        0.24639        2.11006
H          3.07285        1.19940        3.40369
H          7.12697        0.11612        0.51723
H          5.39835        0.73548        0.25365
H          8.13702        2.58698        2.78498
H          8.48926        0.90662        2.30163
H          7.53637        1.24813        3.77021
H          5.31425        2.39429        3.52809
H          5.76039        3.52290        2.27014
H          4.02093        2.39908        0.73622
H          3.41167        3.29152        2.12043
