10
2-MERCAPTOETHANOL.gamout	Energy:    -552.8700900
S          0.44146       -0.37725        0.40956
C          1.80110        0.83630        0.16978
C          1.30299        2.24016       -0.17212
O          2.37172        3.15369       -0.36907
H         -0.02478       -0.35687       -0.86129
H          2.33867        0.84322        1.13022
H          2.49950        0.47893       -0.59879
H          0.75176        2.21719       -1.12295
H          0.60529        2.59347        0.60612
H          2.80539        3.34103        0.47135
