21
2-METHYL-2-HEXENE.gamout	Energy:    -274.7853014
C          1.28026        1.16503        4.66038
C          1.76460        1.89515        5.68178
C          1.87485        0.94157        3.29715
C          1.00383        2.00737        6.98147
C          3.06917        2.65240        5.65503
C          0.99016        1.47991        2.15675
C          1.55572        1.18356        0.76621
H          0.31518        0.66883        4.81921
H          2.01533       -0.14423        3.14215
H          2.87482        1.39183        3.21932
H          0.06360        1.44102        6.95408
H          0.76568        3.06028        7.21013
H          1.60719        1.63304        7.82598
H          3.60420        2.56652        4.70263
H          2.89633        3.72411        5.85147
H          3.74061        2.29446        6.45397
H         -0.01830        1.04293        2.24570
H          0.86401        2.56710        2.28583
H          1.65982        0.09947        0.60300
H          0.90326        1.58040       -0.02525
H          2.55122        1.63627        0.63816
