21
2-METHYL-TRANS-3-HEXENE.gamout	Energy:    -274.7830989
C          1.61646        1.84619        0.63933
C          2.01534        2.11273        2.10225
C          3.25171        1.33344        2.47587
C          0.85157        1.78872        3.05619
C          4.42225        1.85760        2.85784
C          5.64969        1.07606        3.23747
C          6.11717        1.33476        4.67810
H          1.38645        0.77986        0.48498
H          0.72143        2.42495        0.36566
H          2.42757        2.11901       -0.05036
H          2.25081        3.18599        2.20171
H          3.15834        0.24022        2.41900
H          0.58929        0.71996        3.00350
H         -0.04631        2.36697        2.79069
H          1.11476        2.02007        4.09790
H          4.51091        2.95050        2.91534
H          5.45564        0.00116        3.09586
H          6.47184        1.33870        2.54801
H          6.33199        2.40245        4.83984
H          7.03425        0.76963        4.90069
H          5.34430        1.03618        5.40158
