14
2-METHYLPYRIDINE.gamout	Energy:    -287.2298676
C          3.34342       -4.03903        0.01098
C          3.29753       -2.53444       -0.05485
C          4.46325       -1.75739       -0.15380
N          2.08183       -1.96813       -0.01418
C          4.35488       -0.36730       -0.21123
C          3.08575        0.21170       -0.16840
C          1.98094       -0.64001       -0.06922
H          4.37178       -4.42205       -0.02584
H          2.86773       -4.39108        0.93844
H          2.77469       -4.47114       -0.82579
H          5.44136       -2.24032       -0.18523
H          5.24950        0.25404       -0.28841
H          2.95022        1.29328       -0.21020
H          0.96773       -0.22765       -0.03257
