15
2-METHYL-2-BUTENE.gamout	Energy:    -196.2681234
C          4.33887        0.92846        1.18078
C          2.85444        0.99149        0.96356
C          2.03419        2.05077        1.08024
C          0.55501        1.91886        0.81927
C          2.47662        3.43820        1.46638
H          4.85436        0.59036        0.26607
H          4.77442        1.89194        1.47220
H          4.58896        0.19645        1.96716
H          2.39258        0.04146        0.67249
H         -0.02931        2.21946        1.70559
H          0.23910        2.58298       -0.00332
H          0.27621        0.89006        0.55728
H          1.94999        3.77620        2.37521
H          3.55307        3.51222        1.65391
H          2.21956        4.16104        0.67338
