21
2-METHYLNAPHTHALENE.gamout	Energy:    -424.6473797
C          4.65996        1.10907        1.97689
C          5.23058        0.86071        0.60107
C          3.37941        0.70847        2.31216
C          5.43518        1.79018        2.96022
C          2.82219        0.96011        3.59672
C          4.93159        2.05185        4.21477
C          3.61491        1.64982        4.57575
C          1.50444        0.55112        3.94953
C          3.05815        1.90175        5.86060
C          0.99437        0.80999        5.20393
C          1.77816        1.49223        6.16988
H          4.75537       -0.00486        0.11975
H          5.07382        1.73241       -0.05598
H          6.31411        0.67811        0.64308
H          2.76707        0.18099        1.57645
H          6.44925        2.10724        2.70637
H          5.54353        2.57476        4.95277
H          0.90010        0.02601        3.20687
H          3.66393        2.42705        6.60209
H         -0.01750        0.49014        5.45992
H          1.36245        1.69057        7.15941
