19
2-METHYL-2,4-HEXADIENE.gamout	Energy:    -273.5709769
C         33.98387       29.90383       -0.01345
C         32.78424       29.27630       -0.00754
C         35.30645       29.29393       -0.00006
C         31.49999       30.06502       -0.02394
C         32.60583       27.78023        0.01534
C         36.45922       29.99164       -0.00741
C         37.83404       29.39518        0.00574
H         33.97772       30.99930       -0.03036
H         35.36787       28.20186        0.01706
H         31.68278       31.14754       -0.03995
H         30.88906       29.80552       -0.90582
H         30.88222       29.83338        0.86104
H         33.55249       27.22910        0.02570
H         32.02532       27.47354        0.90222
H         32.02851       27.44613       -0.86366
H         36.40615       31.08659       -0.02440
H         37.79908       28.29648        0.02310
H         38.41233       29.70495       -0.88133
H         38.40791       29.73289        0.88547
