18
2-METHYL-1-PENTENE.gamout	Energy:    -235.5233245
C          2.66684        2.21541        3.05710
C          2.15690        1.39262        1.89168
C          3.15232        1.39678        4.27147
C          0.89651        0.59778        2.13026
C          2.77782        1.39127        0.70334
C          4.35042        0.49284        3.97581
H          3.48717        2.86128        2.70806
H          1.85904        2.88757        3.39610
H          2.32170        0.79482        4.67319
H          3.41926        2.10687        5.07072
H          1.02451       -0.12614        2.95077
H          0.06985        1.26380        2.43041
H          0.58782        0.04618        1.23294
H          2.40519        0.80238       -0.13743
H          3.68439        1.97519        0.53066
H          4.11059       -0.25922        3.20997
H          5.20367        1.08009        3.60236
H          4.67776       -0.03831        4.88146
