15
2-METHYL-2-PROPANETHIOL.gamout	Energy:    -556.2559923
C          3.69805        2.08743        1.00111
C          2.25668        2.14888        1.52845
C          1.94811        0.92506        2.40058
C          2.02194        3.44896        2.30807
S          1.17811        2.12500       -0.00453
H          4.40169        2.09999        1.84696
H          3.92463        2.94855        0.35674
H          3.87340        1.16788        0.42517
H          2.09752       -0.00755        1.84100
H          0.91082        0.94480        2.76346
H          2.61325        0.91524        3.27943
H          0.98541        3.51808        2.66741
H          2.22583        4.32786        1.68250
H          2.68706        3.48436        3.18628
H         -0.01651        2.18281        0.62956
