27
2-METHYLANTHRACENE.gamout	Energy:    -578.0856554
C          4.04365        1.41732        0.81895
C          3.28432        1.27915        2.11790
C          3.80956        1.73533        3.30671
C          1.99987        0.64337        2.13636
C          3.11539        1.59132        4.54914
C          1.29663        0.48250        3.30338
C          1.82098        0.94489        4.55115
C          3.64531        2.05360        5.76417
C          1.13083        0.79605        5.76327
C          2.95675        1.90470        6.97753
C          1.66173        1.25633        6.97747
C          3.48787        2.37192        8.22304
C          0.96972        1.10804        8.22263
C          2.79058        2.21082        9.39420
C          1.51491        1.56936        9.39449
H          3.38608        1.27469       -0.04907
H          4.84773        0.66646        0.75045
H          4.51381        2.40748        0.73192
H          4.78640        2.22477        3.31669
H          1.57623        0.28172        1.19715
H          0.32020       -0.00577        3.29218
H          4.62175        2.54290        5.76606
H          0.15424        0.30699        5.76126
H          4.46332        2.86235        8.22496
H         -0.00533        0.61672        8.22244
H          3.21059        2.57450       10.33372
H          0.97389        1.44612       10.33434
