25
2-METHYLTETRALIN.gamout	Energy:    -427.0457638
C          2.00695        2.07077        1.12065
C          0.55525        2.01970        1.60349
C          2.64681        3.43664        1.40969
C          2.86909        0.96870        1.75176
C          4.14037        3.49585        1.14493
C          4.27920        0.94993        1.15485
C          4.91725        2.32372        1.05592
C          4.77212        4.74372        1.01390
C          6.30128        2.43753        0.84303
C          6.14620        4.84534        0.80186
C          6.91814        3.68136        0.71648
H          2.01394        1.91729        0.02604
H          0.50474        2.14335        2.69683
H          0.08514        1.05769        1.35213
H         -0.04709        2.81936        1.14771
H          2.46193        3.68817        2.47052
H          2.14357        4.22238        0.82456
H          2.39590       -0.01575        1.61491
H          2.92388        1.14174        2.84072
H          4.23334        0.50941        0.14273
H          4.93348        0.28489        1.73945
H          4.16768        5.65168        1.08139
H          6.90272        1.52741        0.77563
H          6.61331        5.82702        0.70391
H          7.99541        3.74374        0.55182
