20
2-METHYLPENTANE.gamout	Energy:    -236.7469515
C          1.29364        1.63142        2.21019
C          0.43356        2.86098        1.89718
C         -1.06953        2.58070        1.96590
C          2.80794        1.82207        2.01543
C          3.40394        2.85270        2.98176
C          3.54518        0.48337        2.13424
H          0.96435        0.80156        1.56217
H          1.10107        1.29965        3.24652
H          0.69251        3.22800        0.88931
H          0.68183        3.67893        2.59150
H         -1.65509        3.48010        1.72781
H         -1.36701        2.24524        2.97170
H         -1.35843        1.79231        1.25369
H          2.95847        2.19808        0.98718
H          4.48795        2.95329        2.82579
H          3.24451        2.54316        4.02736
H          2.95981        3.84885        2.85429
H          3.42839        0.05708        3.14365
H          4.62137        0.60638        1.94664
H          3.15756       -0.25098        1.41343
