35
2-METHYLDECANE.gamout	Energy:    -433.0405886
C         -2.07297       -0.23099       -2.23510
C         -0.93187       -0.95900       -1.51801
C         -3.31741       -1.09946       -2.44831
C          0.29481       -0.07681       -1.26769
C         -4.51192       -0.37593       -3.10004
C          1.44869       -0.80519       -0.57241
C          2.66974        0.08141       -0.31143
C         -5.78090       -1.23472       -3.02176
C         -4.22355        0.04167       -4.54936
C          3.83034       -0.65324        0.36820
C          5.04816        0.23511        0.63092
H         -1.70227        0.14304       -3.20306
H         -2.35609        0.66210       -1.65088
H         -0.63156       -1.83881       -2.11323
H         -1.29867       -1.35501       -0.55514
H         -3.05319       -1.97966       -3.06117
H         -3.63918       -1.49654       -1.47084
H         -0.00326        0.79603       -0.66127
H          0.65031        0.33048       -2.23029
H         -4.69243        0.54381       -2.51458
H          1.75229       -1.67004       -1.18758
H          1.09124       -1.22459        0.38428
H          2.36977        0.94267        0.31068
H          3.02013        0.50621       -1.26859
H         -5.65822       -2.17001       -3.59117
H         -6.64885       -0.70311       -3.43884
H         -6.01696       -1.50488       -1.98174
H         -3.36512        0.72349       -4.61961
H         -4.00404       -0.84100       -5.17159
H         -5.09092        0.55428       -4.99074
H          3.47562       -1.08362        1.32013
H          4.12666       -1.51052       -0.25948
H          5.85864       -0.32821        1.11593
H          4.78800        1.08093        1.28565
H          5.44432        0.65150       -0.30830
