21
2-METHYL-1-HEXENE.gamout	Energy:    -274.7824244
C          4.25744        2.47549        2.41515
C          5.37568        1.52696        2.79075
C          3.01322        1.78888        1.82184
C          6.07993        0.82748        1.65392
C          5.72581        1.32444        4.06902
C          1.89343        2.77615        1.47627
C          0.64791        2.10332        0.89458
H          4.63715        3.20844        1.68028
H          3.95578        3.05067        3.30409
H          2.63882        1.04332        2.54311
H          3.28953        1.22866        0.91381
H          6.90121        0.19552        2.01636
H          5.38800        0.18907        1.08117
H          6.49506        1.56000        0.94158
H          6.53067        0.63856        4.34161
H          5.21928        1.83917        4.88857
H          2.27778        3.52107        0.75916
H          1.61662        3.34011        2.38281
H          0.88682        1.56134       -0.03355
H          0.22190        1.37691        1.60379
H         -0.13358        2.84080        0.66032
