12
2-METHYLTHIOPHENE.gamout	Energy:    -591.8977546
C          4.74334        2.68205        0.83122
C          3.31937        2.21426        0.78378
C          2.17096        2.94688        0.96181
S          2.92207        0.53973        0.46873
C          0.97137        2.17448        0.84732
C          1.21672        0.85372        0.58167
H          5.26298        2.51203       -0.12460
H          4.77167        3.75927        1.04353
H          5.31946        2.16793        1.61638
H          2.18416        4.01741        1.17073
H         -0.03125        2.58801        0.95841
H          0.50180        0.04583        0.44554
