18
2-METHOXY-2-METHYLPROPANE.gamout	Energy:    -272.6134220
C          1.10800        1.67389        0.16977
C          0.92054        3.04221        0.84254
H          1.52772        3.14281        1.75270
H         -0.13065        3.17614        1.13380
H          1.19016        3.85159        0.14959
C          0.19034        1.55079       -1.05039
H         -0.86581        1.60858       -0.75226
H          0.36121        0.58953       -1.55285
H          0.39885        2.35762       -1.76571
C          0.82920        0.53319        1.16251
H         -0.21496        0.57158        1.50484
H          1.46925        0.59885        2.05316
H          1.00076       -0.43850        0.67983
C          3.53985        1.75939        0.45668
O          2.43162        1.54110       -0.38370
H          3.62716        2.81336        0.77232
H          4.43150        1.50224       -0.12926
H          3.52600        1.12172        1.35788
