27
2-METHYL-1-HEPTANOL.gamout	Energy:    -390.3984573
O          2.83250        1.27482        5.41955
C          1.04740        1.25737        2.08925
C          2.18993        1.08285        3.10753
C         -0.17127        0.34992        2.29995
C         -1.20423        0.44990        1.17361
C          1.77948        1.55780        4.50277
C          3.46778        1.79082        2.63828
C         -2.41651       -0.46684        1.37008
C         -3.45615       -0.35693        0.25260
H          1.45830        1.06328        1.08502
H          0.72464        2.31387        2.08037
H          2.40682        0.00358        3.19350
H          0.16988       -0.69601        2.38927
H         -0.66558        0.59104        3.25491
H         -0.71865        0.20984        0.21189
H         -1.54900        1.49522        1.08695
H          1.57219        2.64522        4.47154
H          0.85387        1.05021        4.82160
H          4.28409        1.65276        3.35769
H          3.79412        1.39788        1.66449
H          3.29429        2.87310        2.52303
H         -2.06823       -1.51062        1.44808
H         -2.89089       -0.23293        2.33820
H         -3.01703       -0.61211       -0.72421
H         -4.30436       -1.03453        0.42673
H         -3.85362        0.66731        0.18120
H          2.55463        1.49288        6.31469
