18
2-METHYL-2-BUTANETHIOL.gamout	Energy:    -595.5128694
C          2.00168        2.68797        2.45606
C          0.59870        2.83587        1.86776
C          3.05252        1.94758        1.59805
C          4.37027        1.84556        2.37655
C          2.57302        0.54800        1.18545
S          3.36310        2.85725       -0.01420
H          2.40034        3.68589        2.69984
H          1.93456        2.14849        3.41761
H         -0.03562        3.42428        2.54568
H          0.63076        3.34879        0.89708
H          0.10774        1.86279        1.72458
H          5.14792        1.35808        1.77451
H          4.73729        2.83930        2.67093
H          4.22247        1.25627        3.29657
H          3.35616        0.01430        0.62970
H          2.33164       -0.03867        2.08519
H          1.67636        0.58788        0.55374
H          3.86246        3.99140        0.53076
