21
2-METHYL-2-PENTANOL.gamout	Energy:    -311.8884276
C          1.94708       -1.14885       -0.20408
C          0.91526       -0.02023       -0.05897
C          1.15887        1.06768       -1.11592
C         -0.50701       -0.60685       -0.14168
C         -1.65868        0.38480        0.04713
C         -3.02361       -0.30687        0.08869
O          1.01978        0.55065        1.25740
H          2.97002       -0.75790       -0.09007
H          1.78297       -1.91426        0.56635
H          1.87965       -1.62499       -1.19351
H          0.98586        0.67951       -2.13052
H          0.49616        1.92672       -0.95309
H          2.19880        1.42583       -1.06796
H         -0.61150       -1.12194       -1.11102
H         -0.58039       -1.38656        0.63395
H         -1.49460        0.94360        0.97997
H         -1.65626        1.12817       -0.76578
H         -3.22154       -0.85818       -0.84412
H         -3.07626       -1.02871        0.91834
H         -3.83674        0.42018        0.22575
H          1.89522        0.93747        1.37266
