24
2-METHYL-TRANS-3-HEPTENE.gamout	Energy:    -314.0415521
C          1.48364        1.61935        4.48489
C          1.44281        2.43025        3.42112
C          2.04312        1.97392        5.84077
C          0.87279        2.08710        2.07237
C          3.21064        1.04519        6.21645
C          0.94249        1.94282        6.91661
C          1.88304        2.20545        0.91444
C          3.02879        1.19373        0.97583
H          1.07298        0.60510        4.38902
H          1.85479        3.44281        3.52415
H          2.43130        3.00480        5.78034
H          0.45354        1.06779        2.09769
H          0.02878        2.76641        1.85898
H          4.01768        1.09860        5.47235
H          2.87393       -0.00218        6.27389
H          3.62936        1.31465        7.19791
H          0.50686        0.93451        7.00153
H          1.34877        2.21541        7.90232
H          0.12989        2.64112        6.67270
H          1.33835        2.08387       -0.03561
H          2.29336        3.22934        0.89876
H          3.71918        1.32649        0.13003
H          2.64562        0.16201        0.93844
H          3.60816        1.29724        1.90482
