20
2-METHYL-5-ETHYLPYRIDINE.gamout	Energy:    -365.7507144
C          1.79832        2.16807       -0.93009
C          2.71462        1.66433        0.19795
C          2.97283        0.17634        0.13619
C          3.95982       -0.37720       -0.68897
C          2.20974       -0.73342        0.88473
C          4.13165       -1.76041       -0.73281
N          2.36657       -2.05587        0.84790
C          3.30948       -2.58204        0.05376
C          3.44156       -4.08331        0.05610
H          1.63970        3.25392       -0.85018
H          2.23560        1.95847       -1.91747
H          0.81668        1.67367       -0.88789
H          2.26187        1.91427        1.16978
H          3.67434        2.20367        0.15383
H          4.59703        0.27277       -1.29423
H          1.42886       -0.35914        1.55624
H          4.90010       -2.20243       -1.36955
H          3.69295       -4.44198        1.06556
H          2.48408       -4.54853       -0.22188
H          4.21666       -4.42698       -0.64166
