20
2-NAPHTHYLAMINE.gamout	Energy:    -440.6814146
N          8.04949        2.51188       -0.10370
C          6.89973        1.81183        0.24856
C          6.83126        1.18297        1.52933
C          5.79341        1.75053       -0.58766
C          5.69447        0.52154        1.92903
C          4.54596        0.44333        1.09131
C          3.35728       -0.23201        1.47905
C          4.60589        1.07814       -0.19633
C          2.26411       -0.28489        0.63833
C          2.31999        0.34067       -0.63316
C          3.45923        1.00417       -1.03937
H          8.16881        2.74363       -1.08038
H          8.91151        2.24923        0.35430
H          7.69650        1.23563        2.19394
H          5.82991        2.23052       -1.56854
H          5.66160        0.04612        2.91152
H          3.32015       -0.71161        2.45971
H          1.35725       -0.80658        0.94864
H          1.45267        0.29687       -1.29489
H          3.49481        1.48387       -2.01975
