19
2-NAPHTHALENOL.gamout	Energy:    -460.5291437
C          5.93415        0.80222        3.04232
O          7.16659        0.94697        3.61392
C          4.84273        0.62622        3.86962
C          5.76843        0.83000        1.63130
C          3.54108        0.47000        3.32389
C          4.51509        0.68044        1.07940
C          3.36635        0.49654        1.89716
C          2.39088        0.28578        4.14462
C          2.06051        0.33901        1.35560
C          1.13846        0.13580        3.58714
C          0.96829        0.16223        2.17874
H          7.84479        1.06201        2.93905
H          4.99128        0.60776        4.94991
H          6.64056        0.97008        0.98726
H          4.39490        0.70232       -0.00538
H          2.51543        0.26454        5.22903
H          1.93410        0.36012        0.27101
H          0.26999       -0.00442        4.23345
H         -0.02764        0.04258        1.74907
