19
2-NAPHTHOL.gamout	Energy:    -460.5299463
C          5.87355        0.64122        3.28525
O          7.12320        0.73157        3.82835
C          4.72656        0.49853        4.04153
C          5.79934        0.70185        1.86773
C          3.45186        0.40988        3.41626
C          4.57729        0.61817        1.24213
C          3.37014        0.47067        1.98343
C          2.24743        0.26243        4.16073
C          2.09563        0.38209        1.35992
C          1.02594        0.17940        3.52422
C          0.94608        0.23959        2.10992
H          7.08025        0.68183        4.79013
H          4.78863        0.45247        5.13211
H          6.72309        0.81494        1.29978
H          4.52401        0.66505        0.15266
H          2.30141        0.21556        5.25034
H          2.03997        0.42885        0.27030
H          0.11380        0.06649        4.11317
H         -0.02534        0.17313        1.61754
