13
2-NITROPROPANE.gamout	Energy:    -323.2552369
N         -0.74793        0.00021        0.00908
O         -1.62187        0.01038       -0.84291
O         -0.94185       -0.01234        1.21373
C          0.70016        0.00357       -0.46850
C          1.37722        1.27907        0.02564
C          1.37634       -1.28042        0.00411
H          0.60411        0.01295       -1.55994
H          1.42012        1.29827        1.12232
H          2.40325        1.31115       -0.36669
H          0.84653        2.17376       -0.32706
H          1.41936       -1.31781        1.10027
H          0.84485       -2.16870       -0.36330
H          2.40229       -1.30688       -0.38887
