30
2-NONANOL.gamout	Energy:    -429.6618480
C         68.97119       30.04198       -0.09036
C         67.66026       29.24837       -0.12411
C         67.87692       27.73239       -0.13098
C         68.76758       31.55924       -0.07161
C         66.59761       26.90290       -0.00504
C         70.07210       32.35801        0.01038
C         65.66429       27.02563       -1.20857
O         67.02169       25.54979        0.18127
C         69.86089       33.87497        0.04401
C         71.16045       34.67328        0.16454
H         69.55037       29.74063        0.79900
H         69.58801       29.76465       -0.96239
H         67.08139       29.55540       -1.01031
H         67.04969       29.52813        0.75212
H         68.53206       27.45078        0.70809
H         68.40202       27.42712       -1.05125
H         68.20813       31.86502       -0.97259
H         68.12723       31.82685        0.78705
H         66.05784       27.23961        0.90162
H         70.62834       32.04824        0.91211
H         70.71588       32.09671       -0.84770
H         64.77673       26.38629       -1.08228
H         65.30838       28.05840       -1.33286
H         66.18404       26.71748       -2.12752
H         66.25368       24.97170        0.24582
H         69.31926       34.18467       -0.86553
H         69.19885       34.12481        0.89053
H         70.96575       35.75509        0.19558
H         71.70469       34.40403        1.08278
H         71.83018       34.47884       -0.68760
