17
2-NORBORNENE.gamout	Energy:    -272.3565244
C          0.03606       -1.12827       -0.31732
C          0.03578        1.12829       -0.31732
C          0.02076        0.00000       -1.37523
C         -1.26615       -0.78048        0.48559
C         -1.26635        0.78017        0.48557
C          1.20215       -0.67200        0.55029
C          1.20197        0.67230        0.55029
H          0.07910       -2.16127       -0.68433
H          0.07857        2.16129       -0.68433
H          0.91430        0.00010       -2.01312
H         -0.88370       -0.00012       -2.00223
H         -1.24660       -1.20516        1.49765
H         -2.15165       -1.18229       -0.02805
H         -2.15194        1.18175       -0.02809
H         -1.24693        1.20488        1.49763
H          1.83472       -1.33207        1.14450
H          1.83437        1.33255        1.14449
