27
2-OCTANOL.gamout	Energy:    -390.4040137
H          0.38612       -4.66853        1.37454
H         -0.81003       -3.86531       -1.31561
H          0.18123       -7.02183        0.54174
H         -1.41717       -6.26680        0.72277
H         -0.68950       -6.43887       -0.90087
O          1.41967       -4.79706       -0.41947
H          2.02526       -5.46736       -0.08517
C         -0.47458       -6.22594        0.15650
C         -1.30952        1.32845       -0.84387
H         -1.69771       -3.82463        0.21394
C          0.18564       -4.85535        0.30133
C         -0.46033        0.20281       -0.24432
H         -0.03933       -2.18393        1.14364
H         -0.69408        2.92904        0.50902
C         -1.00972       -1.19943       -0.52205
H          0.56775        0.27269       -0.64006
H         -0.37558        0.35206        0.84649
C         -0.14126       -2.32205        0.05288
H         -2.03327       -1.27832       -0.11539
H         -1.10566       -1.34094       -1.61265
C         -0.69324       -3.72189       -0.22800
H          0.87487       -2.24957       -0.36358
C         -0.75183        2.72706       -0.57187
H          0.26261        2.83499       -0.98568
H         -1.38275        3.50620       -1.02387
H         -1.39384        1.17213       -1.93270
H         -2.33655        1.25619       -0.44773
