13
2-PENTYNE.gamout	Energy:    -195.0234445
C          4.51083        0.76773        0.95521
C          3.05195        0.85694        1.06515
C          1.84612        0.95359        1.16238
C          5.23603        2.08670        1.27477
C          0.39319        1.06206        1.27787
H          4.87631       -0.02433        1.63019
H          4.77732        0.44177       -0.06416
H          5.01664        2.41483        2.30048
H          6.32399        1.95889        1.17677
H          4.91735        2.88382        0.58844
H         -0.09697        0.91674        0.30263
H          0.09777        2.05323        1.65609
H         -0.00901        0.30656        1.97076
