18
2-PENTANOL.gamout	Energy:    -272.6253326
C          2.23403        1.77114        3.04173
C          1.62260        2.58467        1.89043
C          1.01856        1.74057        0.76343
C          3.41917        0.86196        2.68161
C          4.63488        1.61800        2.14628
O          3.77665        0.05231        3.80540
H          1.45768        1.13346        3.49351
H          2.56650        2.46620        3.83348
H          2.37867        3.27009        1.47485
H          0.83907        3.23470        2.31107
H          0.24700        1.05809        1.15151
H          1.77885        1.12800        0.25671
H          0.55168        2.37990        0.00046
H          3.09764        0.12684        1.92895
H          4.97285        2.37494        2.87313
H          4.40431        2.13744        1.20520
H          5.46155        0.91910        1.96286
H          4.08366        0.62034        4.52292
