22
2-PHENYL_PROPANOL.gamout	Energy:    -424.8530812
C          1.35419        1.84515        4.56503
C          1.65732        2.94825        3.54492
C          0.35352        3.48615        2.92954
C          2.65121        2.49683        2.48252
O          2.54592        1.53252        5.27066
C          3.90019        3.12114        2.35911
C          2.34059        1.45662        1.59136
C          4.81365        2.72194        1.37791
C          3.24904        1.05269        0.61027
C          4.49182        1.68458        0.49931
H          0.95555        0.95298        4.04819
H          0.57170        2.20290        5.25921
H          2.12961        3.76610        4.11172
H         -0.19583        2.69936        2.39162
H          0.56793        4.29010        2.21298
H         -0.31265        3.88840        3.70735
H          2.37987        0.82547        5.90242
H          4.16595        3.92825        3.04465
H          1.37612        0.94914        1.65955
H          5.78128        3.22216        1.30202
H          2.98527        0.24079       -0.07062
H          5.20264        1.36934       -0.26677
