20
2-PHENYLPROPIONATE-1.gamout	Energy:    -498.2749299
O          2.76738        1.31416        0.20587
O          2.19963       -0.37390        1.60497
C          1.21583       -0.33693       -0.59647
C         -0.25015       -0.13423       -0.28902
C          1.55321       -1.82098       -0.82089
C         -0.83203       -0.63213        0.89245
C         -1.08357        0.56240       -1.17963
C          2.15964        0.26987        0.52923
C         -2.18806       -0.44402        1.16093
C         -2.44303        0.75141       -0.91598
C         -3.00453        0.24583        0.25779
H          1.44521        0.22097       -1.51519
H          1.38895       -2.39314        0.10201
H          0.93956       -2.25623       -1.62710
H          2.61351       -1.92849       -1.09500
H         -0.18337       -1.13234        1.61136
H         -0.65167        0.96836       -2.09587
H         -2.61435       -0.83155        2.08994
H         -3.06399        1.30033       -1.62839
H         -4.06447        0.39330        0.47126
