25
2-PHENYLBUTAN-1-OL.gamout	Energy:    -464.1115826
O         -1.06512       -3.08171        0.35068
C         -1.33660       -0.69841        0.48830
C         -2.10811        0.43034        1.20655
C          0.15529       -0.41859        0.36427
C         -1.61114       -2.04932        1.15971
C         -2.02681        1.78263        0.49589
C          0.77052       -0.37115       -0.89432
C          0.95261       -0.19598        1.49921
C          2.13741       -0.10547       -1.02165
C          2.31868        0.07052        1.37882
C          2.91732        0.11843        0.11566
H         -1.74104       -0.77863       -0.53390
H         -1.73786        0.53105        2.23956
H         -3.16388        0.12574        1.29126
H         -2.70285       -2.18032        1.27216
H         -1.16661       -2.06755        2.17166
H         -0.99060        2.14368        0.44129
H         -2.62285        2.54024        1.02409
H         -2.41120        1.70906       -0.53278
H          0.17123       -0.55530       -1.78784
H          0.50510       -0.22859        2.49464
H          2.59348       -0.07523       -2.01319
H          2.91850        0.24137        2.27507
H          3.98426        0.32799        0.02013
H         -1.21094       -3.93793        0.76542
