19
2-PHENYLETHANOL.gamout	Energy:    -385.5963308
C          6.30451        1.70918       -0.93485
C          6.73832        0.44229       -0.53432
C          4.96899        2.08281       -0.75732
C          4.07313        1.17962       -0.17754
C          4.51140       -0.08600        0.22210
C          5.84954       -0.47553        0.04887
C          6.31405       -1.85760        0.45153
C          6.16115       -2.87803       -0.67658
O          6.62109       -4.13536       -0.19695
H          7.01320        2.40945       -1.38145
H          7.78578        0.16279       -0.66887
H          4.62982        3.07348       -1.06501
H          3.02950        1.46367       -0.02868
H          3.80593       -0.78055        0.68414
H          7.37199       -1.83311        0.75269
H          5.74229       -2.21827        1.31982
H          5.10148       -2.93691       -0.98440
H          6.74671       -2.55294       -1.55557
H          6.53905       -4.80174       -0.88676
