22
2-PHENYL-1-BUTENE.gamout	Energy:    -387.7559436
C          1.21005        3.98448        1.93871
C          1.82764        2.60892        2.10551
C          1.07942        1.55977        2.49025
C          3.28448        2.45409        1.82021
C          1.24449        4.50451        0.49345
C          3.78500        1.28579        1.21282
C          4.20736        3.46428        2.15410
C          5.15006        1.12367        0.97157
C          5.57390        3.30348        1.91426
C          6.05352        2.13126        1.32368
H          1.72667        4.70608        2.59320
H          0.16968        3.94836        2.29277
H          1.50945        0.56956        2.64565
H          0.01098        1.66941        2.68226
H          0.78510        5.50147        0.42730
H          0.69304        3.82867       -0.17638
H          2.27524        4.58038        0.11989
H          3.08841        0.50465        0.90573
H          3.85904        4.38343        2.62551
H          5.50898        0.20931        0.49493
H          6.26712        4.09942        2.19302
H          7.12065        2.00707        1.13164
