18
2-PROPYLTHIOPHENE.gamout	Energy:    -670.4142000
S          2.74575       -1.53501       -0.74609
C          1.81453       -1.39137        1.92382
C          2.63679       -0.88860        3.12493
C          2.11467       -0.67445        0.63468
C          2.31418       -1.63586        4.41970
C          1.96241        0.65925        0.33026
C          2.35359        0.98994       -1.00355
C          2.80051       -0.09621       -1.71160
H          0.74019       -1.28980        2.15580
H          1.99188       -2.47046        1.79466
H          3.70811       -0.98673        2.88841
H          2.45168        0.18857        3.26051
H          2.52216       -2.71248        4.32007
H          2.91436       -1.25494        5.25827
H          1.25224       -1.52557        4.68913
H          1.57862        1.38971        1.04306
H          2.30226        1.99628       -1.41986
H          3.15639       -0.13548       -2.73808
