25
2-TERT-BUTYLPHENOL.gamout	Energy:    -464.1174622
O         -0.01066        2.18510        0.00922
C         -1.61067       -0.23840       -0.01995
C         -0.06687       -0.21713       -0.00147
C         -2.16128       -1.67852       -0.03160
C         -2.13542        0.46885       -1.29337
C         -2.16569        0.45982        1.24547
C          0.66815        0.99290        0.01219
C          0.69319       -1.39872        0.00274
C          2.06853        0.99690        0.02845
C          2.09143       -1.40620        0.01887
C          2.78653       -0.19858        0.03175
H         -1.85904       -2.24352        0.86143
H         -3.25901       -1.64716       -0.04449
H         -1.83852       -2.23779       -0.92111
H         -1.75783       -0.03154       -2.19675
H         -3.23485        0.42823       -1.31775
H         -1.83340        1.52049       -1.33084
H         -3.26543        0.41921        1.24328
H         -1.81001       -0.04706        2.15411
H         -1.86455        1.51109        1.29724
H          0.18048       -2.35782       -0.00693
H          2.59606        1.95491        0.03847
H          2.62804       -2.35592        0.02124
H          3.87742       -0.17883        0.04441
H          0.61539        2.91777        0.01968
