15
2-THIAPENTANE.gamout	Energy:    -556.2484209
S          1.38379       -0.77085        0.01377
C         -1.37663       -0.49430        0.00890
C         -0.08725        0.32642        0.00070
C         -2.63324        0.38077       -0.00136
C          2.70012        0.48927        0.00121
H         -1.38435       -1.16362       -0.86586
H         -1.38523       -1.14459        0.89787
H         -0.04337        0.96403       -0.89663
H         -0.04434        0.98343        0.88401
H         -2.66872        1.01912       -0.89759
H         -3.54221       -0.23791        0.00502
H         -2.66974        1.03870        0.88060
H          2.64481        1.13041        0.89289
H          2.64651        1.11044       -0.90459
H          3.65975       -0.04380        0.00804
