32
3,3-DIMETHYL-4-ETHYLHEXANE.gamout	Energy:    -393.7682770
C          0.17930       36.00041       -1.48325
C          1.10025       35.55086       -0.34367
C          2.07656       36.64526        0.17885
C          1.66690       37.27495        1.56500
C          3.52618       36.11016        0.14902
C          0.18922       37.75370        1.47679
C          1.83194       36.25493        2.70868
C          2.56287       38.49911        1.85099
C         -0.39171       38.47007        2.70186
C          4.09534       35.95994       -1.26549
H         -0.46211       35.17494       -1.82562
H         -0.47510       36.82737       -1.17547
H          0.76722       36.34711       -2.34644
H          1.68318       34.68870       -0.69933
H          0.49001       35.15695        0.48174
H          2.03853       37.48332       -0.53913
H          4.19439       36.77255        0.71398
H          3.56239       35.13403        0.65946
H          0.10054       38.42588        0.60807
H         -0.45414       36.88973        1.25905
H          1.56113       36.69861        3.67586
H          2.87181       35.91223        2.79328
H          1.19841       35.36819        2.56367
H          3.62211       38.22714        1.93291
H          2.46735       39.25102        1.05300
H          2.28816       38.98123        2.79820
H         -1.44535       38.72662        2.52072
H         -0.36261       37.84202        3.60311
H          0.13553       39.40715        2.92604
H          5.11837       35.55766       -1.23749
H          3.49265       35.28019       -1.88560
H          4.13253       36.93222       -1.78057
