32
3,3-DIETHYL-2-METHYLPENTANE.gamout	Energy:    -393.7591414
C         12.73926       57.65188        0.34545
C         14.22396       57.32632        0.15450
C         15.26913       58.48151        0.03869
C         15.21374       59.36211        1.35422
C         16.64085       57.73498       -0.07960
C         15.00567       59.34639       -1.22182
C         16.52991       60.04081        1.77458
C         14.12607       60.45543        1.36439
C         17.84873       58.45752       -0.69315
C         14.93557       58.60219       -2.56163
H         12.14806       56.72778        0.26809
H         12.52809       58.08623        1.33109
H         12.35966       58.34439       -0.41983
H         14.31787       56.70247       -0.74594
H         14.54666       56.68027        0.98780
H         14.96871       58.65024        2.16219
H         16.47813       56.82715       -0.68013
H         16.91098       57.36356        0.92174
H         14.06142       59.89217       -1.09733
H         15.78435       60.12187       -1.28252
H         16.37274       60.58458        2.71731
H         17.34652       59.33010        1.94475
H         16.86256       60.77962        1.03052
H         14.01996       60.85849        2.38173
H         13.14009       60.10473        1.04617
H         14.40797       61.29574        0.71294
H         18.72383       57.79148       -0.66788
H         18.12345       59.37678       -0.16552
H         17.67741       58.72110       -1.74531
H         14.84850       59.32012       -3.38965
H         15.82538       57.98723       -2.75415
H         14.06008       57.94024       -2.61358
