21
3,3-DIMETHYL-2-BUTANOL.gamout	Energy:    -311.8842345
C         -1.38658        1.27681       -0.48446
C         -0.66646        0.01773        0.03635
C          0.80937        0.01133       -0.47609
C          1.65041        1.22786       -0.08800
O          1.48935       -1.19243       -0.11256
C         -0.72081       -0.01130        1.57446
C         -1.37665       -1.22989       -0.52228
H         -1.26954        1.38030       -1.57401
H         -2.46376        1.21570       -0.27202
H         -1.01163        2.19559       -0.01330
H          0.76013       -0.03428       -1.57572
H          1.75494        1.31733        1.00422
H          2.65556        1.12566       -0.51797
H          1.21518        2.16354       -0.46253
H          1.78253       -1.13368        0.80405
H         -1.76397       -0.04421        1.92083
H         -0.21968       -0.90342        1.97824
H         -0.25605        0.87845        2.02205
H         -1.38341       -1.21978       -1.62281
H         -0.87562       -2.15055       -0.19828
H         -2.42171       -1.26386       -0.18082
