19
3,3-DIMETHYLCYCLOPENTENE.gamout	Energy:    -273.5792446
C          1.01583       -0.68528       -0.06792
C          1.01040        0.65155       -0.02323
C         -0.38554        1.23277        0.15707
C         -1.28242       -0.01481       -0.12873
C         -0.37712       -1.25844        0.05986
C         -0.66960        2.38421       -0.82174
C         -0.56159        1.73190        1.60767
H          1.91057       -1.30602       -0.14741
H          1.89938        1.28565       -0.05986
H         -1.62956        0.02290       -1.17184
H         -2.17732       -0.03593        0.50896
H         -0.58624       -2.04530       -0.68152
H         -0.51506       -1.72723        1.05060
H         -0.51569        2.06500       -1.86251
H         -0.00790        3.24211       -0.62779
H         -1.70818        2.73530       -0.72234
H         -0.41305        0.91537        2.32902
H         -1.57146        2.14479        1.75760
H          0.16463        2.52404        1.84432
