29
3,3-DIETHYLPENTANE.gamout	Energy:    -354.5096246
C          3.18203        3.78847        2.59208
C          2.25368        2.56835        2.85278
C          1.80133        2.62230        4.34313
C          2.99920        1.22679        2.61955
C          0.96942        2.60918        1.96536
C          3.87416        3.90388        1.22865
C          0.91411        3.79965        4.76711
C          4.25492        0.96939        3.46140
C          1.02897        2.06073        0.53217
H          2.59644        4.70541        2.75512
H          3.95957        3.79610        3.37187
H          1.26638        1.68423        4.56659
H          2.69489        2.62217        4.98399
H          2.28285        0.40674        2.79453
H          3.27946        1.15151        1.55998
H          0.18268        2.04469        2.49241
H          0.61075        3.64912        1.92617
H          4.46911        3.01244        0.98509
H          3.15975        4.06473        0.41138
H          4.56027        4.76344        1.23112
H         -0.03344        3.82855        4.21165
H          0.66427        3.71507        5.83447
H          1.41564        4.76745        4.62714
H          4.70225        0.00319        3.18665
H          5.02251        1.73997        3.30172
H          4.03781        0.93204        4.53763
H          0.05424        2.20740        0.04498
H          1.78379        2.56006       -0.08740
H          1.24214        0.98326        0.51140
