18
3,3-DIMETHYL-1-BUTENE.gamout	Energy:    -235.5196888
C          3.28232        2.62536        2.31040
C          1.89133        2.08165        2.03391
C          1.26885        2.91164        0.88750
C          2.03210        0.61189        1.57510
C          0.97911        2.14936        3.26823
C          3.76163        3.12363        3.45354
H          3.95295        2.59028        1.44313
H          0.27963        2.51351        0.61416
H          1.14628        3.96278        1.18487
H          1.90168        2.88573       -0.01199
H          1.04928        0.19433        1.30816
H          2.68308        0.53340        0.69192
H          2.46545       -0.00942        2.37171
H         -0.01620        1.74879        3.02955
H          1.38557        1.55888        4.10187
H          0.84883        3.18447        3.61516
H          4.78952        3.48358        3.51754
H          3.16175        3.19455        4.36237
