26
3,3-DIMETHYLHEXANE.gamout	Energy:    -315.2611390
C          3.81970        2.80431        2.73431
C          2.78499        1.99948        1.90464
C          1.58327        1.62060        2.81367
C          2.29416        2.81577        0.69158
C          3.41111        0.68353        1.40190
C          5.12324        3.20735        2.03333
C          0.77095        2.76686        3.42370
C          6.05057        4.01671        2.94358
H          3.33826        3.72283        3.10580
H          4.07087        2.21150        3.63107
H          1.96073        0.98086        3.62927
H          0.90298        0.98410        2.22371
H          1.48597        2.28338        0.16852
H          1.91167        3.80182        0.98960
H          3.10324        2.97934       -0.03294
H          3.79982        0.08584        2.24058
H          2.66280        0.07369        0.87463
H          4.23856        0.86363        0.70269
H          4.89462        3.79968        1.13383
H          5.65835        2.31087        1.68452
H          1.37367        3.38786        4.10122
H          0.34260        3.42570        2.65494
H         -0.06700        2.36471        4.01124
H          5.56373        4.94278        3.28662
H          6.32993        3.43816        3.83757
H          6.97741        4.29883        2.42389
