29
3,3-DIMETHYLHEPTANE.gamout	Energy:    -354.5199465
C          3.27808        1.80012        3.78472
C          4.77275        1.97202        4.16817
C          5.65125        1.13306        3.20241
C          4.92938        1.46076        5.61440
C          5.17153        3.46030        4.11901
C          2.83328        2.25827        2.39118
C          7.15520        1.09505        3.49305
C          1.33123        2.05237        2.16181
C          0.85586        2.49290        0.77629
H          3.01972        0.73343        3.90110
H          2.67315        2.33835        4.53430
H          5.26406        0.10015        3.20012
H          5.50818        1.51209        2.17930
H          4.25689        2.00654        6.29264
H          5.95236        1.59340        5.99232
H          4.67989        0.39108        5.68312
H          4.48540        4.06688        4.72890
H          5.15073        3.85777        3.09457
H          6.18462        3.61556        4.51372
H          3.38706        1.71009        1.61225
H          3.07184        3.32432        2.24555
H          7.67362        0.49167        2.73423
H          7.37631        0.64802        4.47212
H          7.60129        2.09946        3.47143
H          1.08926        0.98679        2.31199
H          0.77011        2.60356        2.93508
H          1.05390        3.56310        0.60918
H         -0.22442        2.32954        0.65147
H          1.37261        1.93232       -0.01823
