16
3,3-DIMETHYL-1-BUTYNE.gamout	Energy:    -234.2732880
C          3.28803        1.92985        1.22821
C          1.93951        1.98518        1.82499
C          1.40099        3.43169        1.72839
C          2.01819        1.55548        3.30865
C          1.00199        1.02648        1.05431
C          4.39455        1.88388        0.73548
H          1.33962        3.75736        0.68117
H          0.39424        3.48925        2.16907
H          2.05523        4.13079        2.26657
H          1.01560        1.59269        3.76027
H          2.40328        0.53109        3.40150
H          2.68028        2.22267        3.87686
H          0.93620        1.30944       -0.00498
H          1.36606       -0.00821        1.11044
H         -0.00915        1.06302        1.48680
H          5.37303        1.84327        0.29967
