24
3,4,4-TRIMETHYL-CIS-2-PENTENE.gamout	Energy:    -314.0323794
C          2.87862        1.99566        2.26456
C          2.00054        1.85939        1.25061
C          2.49605        2.07153        3.76941
C          4.34991        2.07504        1.91353
C          0.50082        1.74365        1.22968
C          1.80549        0.75870        4.20926
C          3.73705        2.25413        4.67411
C          1.57220        3.28522        4.02699
H          2.43802        1.82354        0.24692
H          4.80607        3.01586        2.25865
H          4.92672        1.26069        2.37904
H          4.49992        2.01086        0.82864
H          0.19878        0.81895        0.71073
H          0.03102        1.73733        2.21611
H          0.06044        2.57623        0.65573
H          0.88247        0.56603        3.65233
H          2.47404       -0.10029        4.05449
H          1.55212        0.80071        5.27976
H          3.41852        2.30132        5.72459
H          4.27505        3.18480        4.45179
H          4.44261        1.41849        4.58157
H          1.32009        3.35268        5.09650
H          2.07459        4.22000        3.73992
H          0.63415        3.22619        3.46530
