32
3,4,4-TRIMETHYLHEPTANE.gamout	Energy:    -393.7724085
C         -0.15610       37.00847       -0.14463
C          1.36077       36.88818        0.02846
C          2.06611       38.24908       -0.04490
C          3.62050       38.25201       -0.00032
C          4.12272       39.73401        0.18192
C          4.09104       37.41525        1.20791
C          4.18305       37.63282       -1.29570
C          5.65968       39.88240        0.09551
C          3.45531       40.74122       -0.77181
C          6.20749       41.11277        0.82655
H         -0.64560       36.02664       -0.07580
H         -0.59412       37.65600        0.63067
H         -0.41181       37.44302       -1.12326
H          1.75685       36.21430       -0.74719
H          1.57193       36.40537        0.99390
H          1.69393       38.87452        0.78511
H          1.73888       38.74710       -0.97012
H          3.82883       40.01829        1.20815
H          5.18039       37.44813        1.33247
H          3.81599       36.35878        1.09282
H          3.63621       37.78163        2.14073
H          3.88718       38.20924       -2.18363
H          5.27994       37.58371       -1.27804
H          3.81800       36.60637       -1.43241
H          6.15437       38.99387        0.51025
H          5.95855       39.92689       -0.96457
H          3.89657       41.73886       -0.64979
H          2.37898       40.84344       -0.58908
H          3.59497       40.45015       -1.82378
H          7.29990       41.17988        0.71941
H          5.78171       42.04943        0.43897
H          5.97905       41.06358        1.90220
