14
3,4-DICHLOROANILINE.gamout	Energy:   -1206.0582067
C          6.33218        1.86042       -0.68674
C          6.85212        0.59978       -0.34592
C          4.93220        2.01911       -0.72071
N          7.17795        2.93118       -0.93345
C          6.00287       -0.46835       -0.05429
C          4.61145       -0.30547       -0.09385
Cl         6.72226       -2.00797        0.35962
C          4.09274        0.94946       -0.42939
Cl         3.51312       -1.61895        0.26425
H          7.93030        0.44405       -0.30321
H          4.50187        2.98944       -0.97540
H          6.79843        3.72628       -1.42796
H          8.14341        2.73174       -1.15451
H          3.01149        1.08189       -0.45971
