26
3,4-DIMETHYLHEXANE.gamout	Energy:    -315.2578313
C          3.17281        0.59926        1.15911
C          3.28694        2.04703        1.66655
C          0.72312        2.45546        1.72117
C          2.08777        2.88567        1.17277
C          4.65373        2.69320        1.28630
C          5.85038        1.85705        1.79134
C          7.21901        2.28617        1.25197
C          4.76612        4.14330        1.78750
H          3.87031       -0.07909        1.66541
H          2.16608        0.19384        1.32039
H          3.38125        0.55276        0.07804
H          3.24037        2.02650        2.77217
H          0.71996        2.46891        2.82218
H         -0.06526        3.14118        1.37860
H          0.43656        1.44506        1.39833
H          2.06804        2.85972        0.06891
H          2.23828        3.93789        1.44650
H          4.70633        2.70816        0.18094
H          5.70274        0.80323        1.52238
H          5.86216        1.88957        2.89517
H          8.00498        1.60101        1.60096
H          7.22957        2.27174        0.15096
H          7.50300        3.29731        1.57469
H          4.55551        4.19450        2.86795
H          5.77334        4.54784        1.62740
H          4.06982        4.81933        1.27651
