14
3,4-DICHLOROPHENYL_ISOCYANATE.gamout	Energy:   -1318.0576778
C          6.84181        4.15023       -1.27996
N          6.88630        2.98559       -0.97162
C          6.10477        1.87490       -0.67661
O          6.91379        5.28115       -1.57926
C          6.74852        0.67357       -0.35599
C          4.70013        1.92758       -0.69131
C          6.00195       -0.46630       -0.05191
C          3.96207        0.78845       -0.38780
Cl         6.85195       -1.93744        0.34292
C          4.59971       -0.41507       -0.06659
Cl         3.62975       -1.81566        0.30484
H          7.83624        0.63144       -0.34386
H          4.19032        2.85868       -0.94024
H          2.87322        0.82348       -0.39801
