29
3,4-DIMETHYLHEPTANE.gamout	Energy:    -354.5184112
C          1.56080        2.17371        2.64767
C          2.03532        2.13934        4.12961
C          3.55043        2.37996        4.29207
C          1.58714        0.85096        4.83658
C          1.54313        3.61275        2.09553
C          2.34693        1.21386        1.74020
C          3.98229        2.80092        5.70246
C          0.91298        3.76800        0.70855
C          5.48442        3.07169        5.81450
H          0.51095        1.82904        2.65716
H          1.51908        2.97660        4.63240
H          4.09724        1.46453        4.00852
H          3.88151        3.15855        3.58741
H          1.85911        0.85950        5.90071
H          2.05121       -0.03997        4.38750
H          0.49583        0.72792        4.77599
H          0.99024        4.24663        2.80797
H          2.57014        4.01238        2.07024
H          2.41655        0.20843        2.17694
H          3.37169        1.57560        1.56755
H          1.86544        1.10600        0.75953
H          3.70130        2.02329        6.42990
H          3.42193        3.70561        5.99285
H          1.49297        3.25005       -0.06833
H         -0.11123        3.36381        0.68757
H          0.85808        4.82792        0.42165
H          5.76496        3.36994        6.83498
H          6.06852        2.17509        5.55534
H          5.79519        3.87801        5.13214
