24
3,4-DIMETHYL-TRANS-2-HEXENE.gamout	Energy:    -314.0394750
C          1.45628        4.44919        0.74344
C          1.00373        3.06910        1.22774
C          1.71075        3.27317        3.67262
C          1.84717        2.45595        2.38099
C          3.28486        2.16535        1.94827
C          3.42781        0.95191        1.05959
C          4.32423        2.91756        2.35336
C          5.78047        2.75885        2.01824
H          2.50450        4.43198        0.41307
H          0.83962        4.78222       -0.10382
H          1.36724        5.21055        1.53185
H         -0.04267        3.12801        1.56913
H          1.00384        2.37345        0.37503
H          0.65394        3.33484        3.96934
H          2.26895        2.80618        4.49592
H          2.07903        4.30215        3.56158
H          1.39207        1.46967        2.58501
H          3.19246        0.03477        1.62642
H          2.71787        0.98408        0.21877
H          4.43316        0.83855        0.64000
H          4.10880        3.76160        3.01327
H          6.16911        3.66790        1.52916
H          6.37919        2.62449        2.93456
H          5.98750        1.90855        1.35795
