15
3,4-DIMETHYLTHIOPHENE.gamout	Energy:    -631.1605893
C         -4.96079       -0.75356       -1.21212
C         -3.69165       -0.08635       -1.02635
C         -5.93495       -0.24766       -0.38794
C         -5.17284       -1.86991       -2.19729
C         -3.76024        0.89554       -0.06948
C         -2.45102       -0.43877       -1.80012
S         -5.34547        1.03414        0.62220
H         -6.97427       -0.56137       -0.31933
H         -4.51720       -2.72841       -1.97919
H         -6.21083       -2.22607       -2.17708
H         -4.94692       -1.54591       -3.22607
H         -2.95906        1.54914        0.26842
H         -1.60275        0.18971       -1.49989
H         -2.16435       -1.49106       -1.64200
H         -2.60264       -0.30623       -2.88360
