24
3,4-DIMETHYL-CIS-2-HEXENE.gamout	Energy:    -314.0374579
C          1.29852       -1.13513       -0.13388
C          2.55120       -0.30612       -0.07385
C          3.09323        0.51282       -0.99364
C          2.52149        0.80995       -2.38567
C          2.44173       -0.42115       -3.31597
C          3.78422       -1.11527       -3.55296
C          1.18437        1.57157       -2.32350
C          4.37286        1.25227       -0.68083
H          1.53633       -2.20757       -0.03195
H          0.72565       -1.00959       -1.05759
H          0.63202       -0.88548        0.70841
H          3.09236       -0.39479        0.87519
H          3.23881        1.49736       -2.86563
H          2.03121       -0.08531       -4.28265
H          1.72023       -1.14827       -2.91607
H          4.51517       -0.42296       -3.99896
H          3.67195       -1.96837       -4.23748
H          4.20867       -1.49376       -2.61183
H          0.37951        0.95729       -1.89882
H          0.87191        1.88336       -3.33179
H          1.27513        2.47446       -1.70286
H          4.74234        1.03699        0.33059
H          4.22502        2.34238       -0.76682
H          5.16504        0.98883       -1.40150
