19
3,4-DIHYDROXYPHENYLACETATE-1.gamout	Energy:    -609.3043375
O         -2.63328        1.91232       -0.32010
O         -3.57750       -0.46633        0.55761
O          3.76876        0.60561        0.48419
O          2.96412       -1.51132        0.50107
C          0.47119       -0.08287       -0.53493
C          1.91159        0.09374       -0.94594
C         -0.43296        0.99031       -0.60486
C         -0.01070       -1.32289       -0.07664
C         -1.77122        0.84313       -0.23684
C         -1.34783       -1.47392        0.29393
C         -2.23113       -0.39712        0.21402
C          2.99133       -0.31007        0.13820
H          2.08755        1.13401       -1.24666
H          2.11421       -0.54942       -1.81998
H         -0.09764        1.96972       -0.94917
H          0.69968       -2.14317        0.02032
H         -1.71239       -2.44199        0.65377
H         -3.50199        1.62245       -0.01102
H         -3.77249       -1.33769        0.91491
