12
3,4-DICHLORO-1-BUTENE.gamout	Energy:   -1075.8254934
C          0.65859        1.24978       -0.25413
C          2.00923        0.62174       -0.13575
C          2.52320       -0.05128       -1.40342
Cl         3.25072        1.93291        0.26558
C         -0.35185        0.99825        0.58123
Cl         1.51292       -1.50143       -1.81199
H          0.52795        1.94832       -1.08658
H          2.04853       -0.07395        0.71072
H          2.47793        0.62820       -2.26244
H          3.54970       -0.40739       -1.26979
H         -1.32535        1.47213        0.44971
H         -0.24333        0.30763        1.42061
