17
3,4-DIMETHYLPYRIDINE.gamout	Energy:    -326.4906074
C          3.06343        0.17956       -0.19611
C          4.34149       -0.38934       -0.24734
C          1.94529       -0.63835       -0.01795
N          2.03070       -1.96287        0.10935
C          3.24689       -2.51054        0.06116
C          4.43803       -1.79169       -0.11355
C          5.76667       -2.50153       -0.15523
C          5.56988        0.46232       -0.43780
H          2.93726        1.25983       -0.29457
H          0.94205       -0.20363        0.02357
H          3.28996       -3.59993        0.16779
H          6.43902       -2.14809        0.64283
H          5.63902       -3.58470       -0.03210
H          6.28647       -2.32956       -1.11127
H          5.31031        1.52512       -0.52058
H          6.26923        0.34589        0.40522
H          6.11792        0.17268       -1.34844
