19
3,4-DINITROTOLUENE.gamout	Energy:    -679.7451865
O          6.80041        3.84591       -1.70908
N          7.13982        3.05226       -0.84570
O          8.09116        3.17979       -0.09322
C          6.29153        1.86291       -0.65913
C          6.82305        0.61200       -0.32174
C          4.91159        2.02398       -0.73704
N          8.27508        0.34328       -0.34559
C          5.98125       -0.45680       -0.03887
C          4.06937        0.94570       -0.45996
O          8.73106       -0.31506        0.57430
O          8.89576        0.75338       -1.31048
C          4.58556       -0.30888       -0.10377
C          3.68273       -1.48125        0.18292
H          4.51210        3.00313       -0.99774
H          6.42944       -1.41615        0.21957
H          2.98914        1.08801       -0.51469
H          3.67341       -2.18258       -0.66667
H          4.02560       -2.03994        1.06529
H          2.64962       -1.15669        0.36016
