29
3,5-DIMETHYLHEPTANE.gamout	Energy:    -354.5115765
C          2.78158        3.96281        4.51857
C          3.73511        3.99635        3.29658
C          2.34555        2.65267        5.22405
C          3.16650        3.32620        2.02798
C          5.16905        3.53040        3.60162
C          1.47165        1.72092        4.35779
C          3.49053        1.89160        5.91443
C          3.82463        3.79319        0.72546
C          0.62584        0.73381        5.16880
H          3.23490        4.60506        5.29214
H          1.85748        4.48306        4.21477
H          3.80979        5.07352        3.05823
H          1.68596        3.01026        6.03642
H          3.26581        2.23262        2.11021
H          2.08617        3.52977        1.96980
H          5.23149        2.43839        3.70298
H          5.54238        3.97728        4.53419
H          5.85845        3.82503        2.79888
H          0.80137        2.33452        3.73630
H          2.10865        1.15972        3.65673
H          3.09929        1.15219        6.62562
H          4.14030        2.57651        6.47794
H          4.11703        1.35170        5.19132
H          3.70779        4.87985        0.59400
H          3.36786        3.30079       -0.14510
H          4.90006        3.56723        0.70252
H          0.00278        0.11093        4.51111
H          1.24840        0.05569        5.76943
H         -0.04622        1.26852        5.85751
