24
3,5-DIMETHYL-1-HEXENE.gamout	Energy:    -314.0341249
C          0.49717       -0.09207       -0.51739
C          1.60942        0.79979        0.05373
C          1.25815        2.30332        0.02629
C          1.95674        0.36073        1.48381
C          1.48331        3.05643       -1.30487
C          0.57381        2.61254       -2.42246
C          1.31677        4.57331       -1.08176
C          0.96197        2.21249       -3.63718
H          0.79550       -1.15087       -0.49293
H         -0.42237        0.00792        0.08210
H          0.25423        0.16459       -1.55493
H          2.51243        0.65743       -0.56692
H          0.21072        2.44076        0.35002
H          1.87282        2.81413        0.78429
H          2.80895        0.92911        1.88531
H          2.21587       -0.70759        1.52161
H          1.10057        0.51840        2.15960
H          2.52451        2.87409       -1.62288
H         -0.50032        2.67218       -2.20506
H          1.52359        5.13332       -2.00388
H          2.00136        4.93090       -0.29825
H          0.28906        4.81282       -0.76586
H          0.23724        1.94170       -4.40667
H          2.01967        2.14131       -3.90453
