24
3,5-DIMETHYL-TRANS-2-HEXENE.gamout	Energy:    -314.0414626
C          0.56642        0.44316        0.40850
C          2.06270        0.55030        0.46381
C          2.93260        0.75381       -0.54222
C          4.42609        0.80555       -0.24980
C          5.10752       -0.56829       -0.03967
C          4.95522       -1.49792       -1.24960
C          6.58452       -0.38077        0.32883
C          2.53776        0.95978       -1.98320
H          0.09344        1.23040        1.01957
H          0.22828       -0.51938        0.82805
H          0.16258        0.52291       -0.60821
H          2.48806        0.44894        1.46984
H          4.59501        1.40956        0.65577
H          4.94582        1.33056       -1.06928
H          4.60152       -1.04819        0.81567
H          5.41819       -1.05484       -2.14622
H          3.89913       -1.70077       -1.47409
H          5.44681       -2.46422       -1.06490
H          7.13835        0.09267       -0.49776
H          7.06620       -1.34649        0.54203
H          6.69928        0.25730        1.21777
H          1.46121        0.85427       -2.16019
H          3.06146        0.25028       -2.64296
H          2.83747        1.96815       -2.31567
