19
3,5-XYLENOL.gamout	Energy:    -385.6098142
C          1.96267        1.82419        1.06013
C          0.66060        1.06547        0.95595
C          3.18966        1.13830        1.01754
C          1.96919        3.21722        1.17576
C          4.40997        1.81932        1.08294
C          3.18449        3.91045        1.24195
C          5.72456        1.07635        1.04393
C          4.39769        3.21934        1.19544
O          3.12180        5.27152        1.35509
H         -0.17780        1.64406        1.36671
H          0.42201        0.83691       -0.09570
H          0.71362        0.10813        1.49397
H          3.18950        0.04928        0.93230
H          1.03874        3.78512        1.21712
H          6.36598        1.44598        0.22894
H          6.28407        1.20834        1.98362
H          5.57151        0.00007        0.89248
H          5.34040        3.77150        1.25079
H          4.00754        5.64936        1.39599
