24
3,5-DIMETHYL-CIS-2-HEXENE.gamout	Energy:    -314.0423917
C          1.48986        0.73230        1.39488
C          2.68887        0.28472        0.60774
C          3.00794       -0.97088        0.24463
C          2.15055       -2.17596        0.59374
C          0.89487       -2.38285       -0.28955
C          1.23200       -2.52507       -1.77887
C          0.08536       -3.58451        0.21292
C          4.27505       -1.25886       -0.52246
H          0.82261        1.36101        0.78121
H          1.79459        1.35185        2.25400
H          0.89410       -0.10559        1.77778
H          3.37340        1.08559        0.30731
H          1.81857       -2.10393        1.64101
H          2.76814       -3.08795        0.53508
H          0.26697       -1.48295       -0.17921
H          1.88227       -3.39684       -1.95564
H          1.74319       -1.63212       -2.16376
H          0.31748       -2.66605       -2.37281
H          0.66819       -4.51517        0.12240
H         -0.83948       -3.71302       -0.36822
H         -0.19400       -3.46699        1.27071
H          4.82493       -0.34041       -0.76820
H          4.06470       -1.79656       -1.46077
H          4.94222       -1.91314        0.06409
