9
3-BROMO-1-PROPENE.gamout	Energy:   -2690.8794342
C          0.00316        0.07981        0.26628
C          1.10595        0.55930       -0.31883
C          2.44648       -0.07421       -0.20551
Br         3.74349        1.13592        0.71663
H         -0.96413        0.56658        0.13331
H          0.02899       -0.81398        0.89447
H          1.04924        1.46292       -0.93297
H          2.43061       -0.99231        0.39033
H          2.91060       -0.25876       -1.18148
