26
3-BUTOXYPROPANE-1,2-DIOL.gamout	Energy:    -501.4025585
C         -0.13920       -0.45278       -1.45160
C         -0.66602       -1.80364       -0.97092
C          0.24289       -2.96694       -1.35284
O         -0.18870       -0.44584       -2.87393
O         -0.85738       -1.67350        0.43114
O          1.53379       -2.78467       -0.82309
C          2.45622       -3.79117       -1.18719
C          3.82769       -3.44473       -0.62794
C          4.89536       -4.48671       -0.97732
C          6.28274       -4.12699       -0.44181
H         -0.77889        0.33733       -1.02459
H          0.88857       -0.31504       -1.08183
H         -1.63427       -1.98410       -1.47515
H          0.27554       -3.03407       -2.45591
H         -0.19732       -3.91577       -0.97976
H          0.28566        0.31923       -3.21287
H         -0.85473       -2.53998        0.85099
H          2.50254       -3.87931       -2.29076
H          2.11891       -4.77296       -0.79796
H          3.74812       -3.33593        0.46559
H          4.12600       -2.45951       -1.02109
H          4.94765       -4.60124       -2.07342
H          4.59251       -5.47095       -0.58195
H          6.62566       -3.16357       -0.84923
H          7.02683       -4.88973       -0.71283
H          6.27571       -4.04014        0.65565
