26
3-CARENE.gamout	Energy:    -390.1351438
C         -1.45548        0.69930        0.29031
C         -2.11555       -0.41931       -0.04496
C         -1.64876       -1.45221       -1.03564
C         -0.12152        1.07253       -0.31661
C          0.45434        0.09885       -1.33263
C         -0.30845       -1.16268       -1.69448
C          1.00804       -1.25945       -0.94649
C         -1.99708        1.67883        1.29841
C          1.03149       -1.68804        0.51056
C          2.21087       -1.75814       -1.73153
H          0.98162        0.58785       -2.15514
H         -0.26265       -1.46287       -2.74407
H         -3.08151       -0.61753        0.43021
H         -2.41448       -1.54526       -1.82469
H         -1.63044       -2.44296       -0.54472
H          0.60228        1.25483        0.50039
H         -0.24026        2.05561       -0.80460
H         -2.98113        1.37425        1.67819
H         -2.09279        2.68708        0.86117
H         -1.31256        1.77646        2.15839
H          1.93390       -1.30128        1.00978
H          1.06472       -2.78615        0.58812
H          0.15990       -1.33914        1.07534
H          3.15001       -1.38257       -1.29441
H          2.17603       -1.43060       -2.78004
H          2.25918       -2.85876       -1.72469
