15
3-CHLORO-2-METHYL-1-BUTENE.gamout	Energy:    -655.6787823
C         29.92969       17.08113        0.14132
C         28.42400       17.05587        0.00438
C         27.79549       15.68804       -0.07007
C         27.70009       18.18091       -0.07765
C         30.62969       18.41939       -0.00717
Cl        30.39297       16.35775        1.79276
H         30.36007       16.35361       -0.56135
H         28.22277       15.10444       -0.90262
H         27.98921       15.11821        0.85093
H         26.71050       15.75459       -0.21817
H         26.61676       18.13924       -0.20057
H         28.14599       19.17347       -0.02593
H         31.71401       18.28997        0.08997
H         30.41541       18.83960       -1.00150
H         30.29997       19.13412        0.75778
