12
3-CHLORO-1-BUTENE.gamout	Energy:    -616.4167732
C          1.86679        1.92905        2.46680
C          2.69438        2.06865        1.22806
C          3.48711        0.82004        0.86850
Cl         3.87278        3.47877        1.46097
C          0.55276        2.16424        2.51845
H          2.40439        1.60834        3.36502
H          2.06660        2.38896        0.38739
H          4.10303        0.98952       -0.02425
H          2.78751       -0.00545        0.66537
H          4.14599        0.52167        1.69594
H         -0.00488        2.49552        1.63889
H         -0.01132        2.03209        3.44282
