13
3-CHLOROPHENOL.gamout	Energy:    -766.4982209
Cl         2.59644       -0.38794       -0.18702
O         -2.43481       -1.42888       -0.18055
C         -1.42441       -0.51589       -0.13796
C         -0.07607       -0.89428       -0.17926
C         -1.77605        0.83754       -0.05059
C          0.90720        0.09581       -0.13214
C         -0.77193        1.80372       -0.00478
C          0.58133        1.44941       -0.04460
H          0.20627       -1.94620       -0.24789
H         -2.83071        1.11087       -0.01991
H         -1.04498        2.85799        0.06335
H          1.36416        2.20555       -0.00919
H         -2.08902       -2.32680       -0.24004
