9
3-CHLOROPROPENE.gamout	Energy:    -577.1542678
C         -1.33942       -0.12658        0.42394
C         -0.21691        0.34652       -0.12516
C          1.10721       -0.33189       -0.01820
Cl         2.33203        0.72733        0.84084
H         -2.29322        0.38896        0.30015
H         -1.34616       -1.04604        1.01488
H         -0.23527        1.27570       -0.70251
H          1.04886       -1.26470        0.55415
H          1.54948       -0.53195       -1.00294
