12
3-CYANOPYRIDINE.gamout	Energy:    -340.0929541
N          1.89485       -1.11484        0.00012
N         -2.87469       -0.49961        0.00602
C         -0.30417       -0.13886        0.00238
C          0.25140        1.15249        0.00007
C          1.63760        1.27756       -0.00229
C          0.57152       -1.24336        0.00236
C          2.41664        0.11516       -0.00229
C         -1.72561       -0.33915        0.00440
H         -0.39748        2.02909        0.00008
H          2.11057        2.26008       -0.00418
H          0.16709       -2.25899        0.00426
H          3.50824        0.18083       -0.00426
