28
3-DECYNE.gamout	Energy:    -391.3170662
C          6.85763        0.91902        2.56482
C          5.75755        1.83144        1.98943
C          4.39416        1.14010        1.91805
C          8.16982        1.56089        2.67066
C          3.28305        2.02685        1.34964
C          9.25438        2.10051        2.75169
C          1.91685        1.33632        1.29292
C         10.56182        2.74846        2.89086
C          0.80516        2.21895        0.72283
C         10.85573        3.24637        4.31684
H          6.94325        0.01286        1.94042
H          6.54703        0.56748        3.56393
H          6.06013        2.17250        0.98627
H          5.68355        2.73788        2.61169
H          4.10492        0.80171        2.92865
H          4.47922        0.22418        1.30699
H          3.56522        2.36193        0.33616
H          3.20150        2.94467        1.95810
H          1.63851        1.00354        2.30744
H          2.00310        0.41623        0.68994
H         11.34900        2.04114        2.57989
H         10.62245        3.59493        2.18660
H         -0.15746        1.68792        0.70137
H          1.03726        2.53445       -0.30625
H          0.67165        3.13014        1.32669
H         10.84459        2.41236        5.03247
H         10.10107        3.97836        4.63751
H         11.84448        3.72632        4.35882
