20
3-ETHOXY-1,2-PROPANEDIOL.gamout	Energy:    -422.8851271
C         -0.14348       -0.05699        2.20315
C          0.98326        0.48123        3.06622
O          1.96117        1.07476        2.23703
C          3.06014        1.60116        2.94466
C          4.07232        2.17345        1.96651
C          5.07941        3.09503        2.66268
O          4.76410        1.08843        1.35596
O          4.39523        4.25211        3.12195
H         -0.60593        0.75421        1.62350
H         -0.91606       -0.52007        2.83332
H          0.23524       -0.81318        1.50180
H          0.59623        1.22982        3.78583
H          1.44118       -0.33390        3.66005
H          2.73142        2.39791        3.63639
H          3.55556        0.80910        3.54090
H          3.51994        2.75986        1.21363
H          5.55858        2.54853        3.49519
H          5.86793        3.36233        1.93666
H          5.08132        1.34563        0.48429
H          5.01088        4.85217        3.55450
