21
3-ETHYL-1-PENTENE.gamout	Energy:    -274.7731852
C          1.20931        0.95174        2.07524
C          2.05111        2.16487        2.56522
C          3.53898        2.08574        2.14732
C          1.96399        2.29595        4.06546
C          0.47484        1.17522        0.74879
C          3.80992        2.02764        0.64189
C          1.49999        3.35690        4.73213
H          0.45717        0.70865        2.84098
H          1.86015        0.06434        2.00095
H          1.62182        3.08181        2.12516
H          4.05621        2.96084        2.57101
H          3.98946        1.20305        2.63324
H          2.32155        1.42904        4.63608
H         -0.22934        2.01652        0.83538
H         -0.10356        0.28303        0.46681
H          1.16279        1.40252       -0.07639
H          4.89120        2.05638        0.44467
H          3.41841        1.10602        0.18894
H          3.35239        2.88244        0.12082
H          1.46963        3.37842        5.82280
H          1.13303        4.24336        4.20766
