26
3-ETHYLHEXANE.gamout	Energy:    -315.2584966
C          4.25353        2.62724        1.25004
C          2.77181        2.63416        1.67984
C          2.06996        1.32745        1.22314
C          2.04805        3.90018        1.17858
C          5.11324        3.77958        1.78246
C          1.14044        0.69532        2.26461
C          0.58371        4.04394        1.60200
C          6.59838        3.62108        1.44764
H          4.30762        2.60768        0.14634
H          4.70209        1.67816        1.58863
H          2.75619        2.65641        2.78556
H          1.50946        1.51881        0.29299
H          2.83705        0.58404        0.95533
H          2.11258        3.92038        0.07623
H          2.59581        4.78667        1.53030
H          4.98885        3.84264        2.87732
H          4.75604        4.73893        1.37791
H          0.32985        1.37439        2.56214
H          1.70091        0.43139        3.17459
H          0.68084       -0.22594        1.87692
H         -0.04796        3.24651        1.18591
H          0.48114        4.01798        2.69768
H          0.17262        5.00181        1.25271
H          7.00575        2.69332        1.87814
H          6.75798        3.57949        0.35894
H          7.19032        4.46063        1.83954
