19
3-ETHYL-1-PENTYNE.gamout	Energy:    -273.5302735
C          1.03050       -0.05782        0.02430
C          2.24069       -0.02724       -0.04041
C          3.70711        0.02762       -0.11440
C          4.18955        0.40454       -1.53515
C          3.74688       -0.56768       -2.62839
C          4.26291        0.97229        0.98194
C          5.78083        0.90907        1.16345
H         -0.03905       -0.09201        0.08361
H          4.07992       -0.99086        0.10459
H          5.28799        0.45507       -1.52075
H          3.83047        1.42019       -1.76705
H          4.12387       -1.58303       -2.43068
H          4.13111       -0.25328       -3.60891
H          2.65145       -0.62415       -2.69414
H          3.77432        0.71378        1.93279
H          3.94985        2.00208        0.74686
H          6.11244       -0.11876        1.37796
H          6.09331        1.54150        2.00632
H          6.32384        1.25879        0.27429
