24
3-ETHYL-3-HEXENE.gamout	Energy:    -314.0406093
C          3.55202        3.00182        4.41033
C          3.56659        3.70833        3.04346
C          3.08234        2.83171        1.90232
C          1.57417        2.81261        1.73621
C          3.90727        2.12195        1.11141
C          0.98650        1.86784        0.68989
C          5.40941        2.03612        1.17247
C          5.91399        0.60368        1.41519
H          2.54916        2.62510        4.65901
H          4.24020        2.14445        4.41395
H          3.85869        3.69142        5.21122
H          2.92325        4.60257        3.09939
H          4.58120        4.07827        2.84329
H          1.12377        2.58406        2.71863
H          1.24746        3.84530        1.51514
H          3.45963        1.50645        0.32517
H          1.25410        0.82124        0.89680
H         -0.10997        1.93962        0.68434
H          1.34084        2.11326       -0.32191
H          5.82618        2.39559        0.21450
H          5.81236        2.69888        1.94997
H          5.56395        0.22495        2.38669
H          5.54622       -0.08321        0.63762
H          7.01336        0.56500        1.40589
