29
3-ETHYL-3-METHYLHEXANE.gamout	Energy:    -354.5133878
C          3.50071        2.83561        3.15522
C          2.44752        1.72240        3.40898
C          2.18954        0.98757        2.05911
C          1.09267        2.29186        3.92893
C          3.01443        0.67063        4.38208
C          3.93350        3.72375        4.32855
C          1.53162        1.78968        0.93102
C          0.93296        2.53341        5.43542
C          5.08025        4.66624        3.95094
H          4.40207        2.34935        2.74240
H          3.12681        3.49502        2.35681
H          1.56293        0.10654        2.27456
H          3.15212        0.59098        1.69632
H          0.29526        1.59334        3.62690
H          0.88109        3.23018        3.39294
H          3.28191        1.09636        5.35721
H          3.92089        0.21030        3.96182
H          2.28626       -0.13438        4.56271
H          3.08075        4.32562        4.67529
H          4.24550        3.10480        5.18334
H          0.54505        2.17738        1.22087
H          1.38409        1.14916        0.04958
H          2.14921        2.64151        0.61429
H          1.67931        3.22765        5.84061
H          1.00521        1.59832        6.00827
H         -0.05899        2.96222        5.63911
H          5.97197        4.10126        3.63874
H          5.36797        5.30617        4.79739
H          4.79489        5.32407        3.11546
