32
3-ETHYL-2,2,4-TRIMETHYLPENTANE.gamout	Energy:    -393.7651199
C         34.21178       10.16808        0.24148
C         33.93661       11.61948       -0.23282
C         35.62157        9.95077        0.80094
C         34.61515       11.82904       -1.62972
C         32.43191       12.04052       -0.01880
C         33.85927       11.26967       -2.84553
C         35.09782       13.26338       -1.90661
C         32.18364       12.16503        1.50381
C         32.12107       13.42234       -0.62836
C         31.42300       11.01880       -0.58750
H         33.49506        9.87632        1.01953
H         34.03989        9.46981       -0.59339
H         34.50354       12.27574        0.44980
H         35.77349        8.90124        1.09231
H         36.40360       10.20311        0.06995
H         35.78857       10.57309        1.69339
H         35.53997       11.23510       -1.55787
H         34.51400       11.27654       -3.72913
H         33.53072       10.23300       -2.69193
H         32.97608       11.87344       -3.09359
H         35.76713       13.26993       -2.78013
H         35.66331       13.66519       -1.05296
H         34.27901       13.95978       -2.12444
H         31.14576       12.47200        1.69945
H         32.35003       11.21974        2.03623
H         32.84509       12.92271        1.94979
H         31.10391       13.73016       -0.34564
H         32.16651       13.41817       -1.72351
H         32.81405       14.19066       -0.25796
H         31.48783       10.93207       -1.67741
H         31.56072       10.01646       -0.16123
H         30.39753       11.33537       -0.34522
