24
3-ETHYL-1-HEXENE.gamout	Energy:    -314.0355455
C          0.21893        0.03978        0.26638
C          1.49094        0.85214        0.01707
C          1.25630        2.36590        0.05049
C          2.52592        3.21560       -0.17494
C          3.09662        2.98134       -1.55120
C          2.26154        4.72710        0.02786
C          4.31973        2.51981       -1.82831
C          1.88714        5.13386        1.45559
H          0.42163       -1.04062        0.23857
H         -0.21931        0.27272        1.24960
H         -0.54560        0.25615       -0.49603
H          1.92557        0.56875       -0.95386
H          2.24885        0.59253        0.77561
H          0.81033        2.63016        1.02179
H          0.50689        2.63981       -0.71371
H          3.28418        2.90439        0.56576
H          2.42708        3.23433       -2.38356
H          3.16905        5.27414       -0.27076
H          1.46925        5.04751       -0.67039
H          4.66325        2.39301       -2.85634
H          5.02220        2.25376       -1.03402
H          1.79060        6.22643        1.53398
H          0.93115        4.69807        1.77874
H          2.66024        4.81477        2.17175
