29
3-ETHYL-2-METHYLHEXANE.gamout	Energy:    -354.5148184
C          2.71011        1.12940        2.77518
C          4.15233        1.61304        3.05150
C          5.15311        1.26605        1.90397
C          4.23849        3.08710        3.49586
C          1.93857        1.77868        1.61915
C          5.27341        2.32700        0.79671
C          6.54636        0.94124        2.46672
C          3.46489        3.41788        4.77590
C          0.48838        1.29242        1.53748
H          2.74696        0.04018        2.60247
H          2.11748        1.25280        3.69596
H          4.48132        1.01293        3.91808
H          4.77705        0.34263        1.43040
H          3.89266        3.74762        2.68605
H          5.29785        3.34250        3.65440
H          1.94533        2.87482        1.72700
H          2.44029        1.56140        0.66453
H          5.89068        1.94274       -0.02843
H          5.76075        3.24093        1.16692
H          4.30193        2.61497        0.37747
H          6.97552        1.80642        2.99609
H          7.24536        0.66986        1.66235
H          6.50464        0.10135        3.17554
H          3.64211        4.45926        5.08087
H          3.77598        2.76853        5.60910
H          2.38012        3.29634        4.64682
H         -0.04388        1.75557        0.69432
H         -0.06448        1.53641        2.45767
H          0.44337        0.20065        1.40368
