23
3-ETHYLPENTANE.gamout	Energy:    -276.0001027
C          4.66514        4.17938        1.18580
C          3.36957        3.47624        1.64027
C          3.33875        1.98794        1.20345
C          2.14668        4.26958        1.13774
C          5.93077        3.72312        1.91583
C          2.80482        1.01501        2.26004
C          0.77683        3.75254        1.58296
H          4.78704        4.03084        0.09873
H          4.54934        5.26566        1.33084
H          3.35280        3.50596        2.74570
H          2.74308        1.89600        0.27969
H          4.35383        1.66480        0.92812
H          2.25398        5.31401        1.47344
H          2.18160        4.30168        0.03442
H          6.81619        4.25965        1.54500
H          5.85065        3.91650        2.99679
H          6.12093        2.64759        1.78412
H          1.78035        1.26378        2.56912
H          3.43630        1.03759        3.16131
H          2.79921       -0.01778        1.88112
H          0.70600        3.70653        2.68058
H         -0.02267        4.41711        1.22514
H          0.56511        2.74761        1.19041
