22
3-ETHYLCYCLOHEXENE.gamout	Energy:    -312.8426207
C          2.84062        1.32594        0.76848
C          1.34286        1.32289        1.10074
C          3.68052        0.98669        2.00724
C          1.05116        1.99695        2.41726
C          1.99348        2.31176        3.31725
C          3.46689        2.00181        3.14991
C          4.33130        3.27412        2.97522
C          4.23663        4.27833        4.12654
H          3.12739        2.32177        0.39427
H          3.05162        0.61503       -0.04463
H          0.96122        0.28521        1.13607
H          0.76883        1.81290        0.29700
H          4.74856        0.93649        1.74473
H          3.39833       -0.01788        2.36254
H          0.00576        2.23184        2.63845
H          1.69173        2.80933        4.24232
H          3.80346        1.52712        4.09018
H          5.38054        2.95510        2.86022
H          4.05422        3.77267        2.03280
H          4.50839        3.80972        5.08531
H          3.22181        4.68873        4.22684
H          4.91953        5.12422        3.96274
