32
3-ETHYL-2,3,4-TRIMETHYLPENTANE.gamout	Energy:    -393.7628029
C         -0.62495       13.46333       -0.04776
C          0.60038       14.39504       -0.11736
C          2.02979       13.72563       -0.01773
C          0.44602       15.35428       -1.30968
C          2.52842       13.12700       -1.38935
C          3.02088       14.84748        0.38796
C          2.04562       12.63308        1.08710
C          1.63974       12.03487       -2.00897
C          3.97924       12.60717       -1.35099
C          1.69969       13.08865        2.51083
H         -1.53578       14.07478        0.03453
H         -0.74004       12.83636       -0.93919
H         -0.60374       12.80045        0.82524
H          0.53195       15.02286        0.78526
H          1.26742       16.07977       -1.37883
H         -0.48642       15.92859       -1.21251
H          0.39306       14.81436       -2.26600
H          2.53017       13.97237       -2.09515
H          3.97294       14.43676        0.74756
H          2.61265       15.47104        1.19357
H          3.24845       15.51139       -0.45684
H          1.37040       11.81406        0.80402
H          3.05112       12.18998        1.11516
H          2.12023       11.63868       -2.91506
H          0.65391       12.40790       -2.30609
H          1.48812       11.18654       -1.32644
H          4.29833       12.33574       -2.36739
H          4.69182       13.35165       -0.97678
H          4.07590       11.70292       -0.73271
H          1.74526       12.23462        3.20160
H          2.40626       13.84408        2.88114
H          0.68935       13.51350        2.58682
