17
3-ETHYLPYRIDINE.gamout	Energy:    -326.4852715
C          1.85608        2.14534       -0.98969
C          2.67402        1.63726        0.20963
C          2.95377        0.15292        0.15146
C          4.02603       -0.37226       -0.58284
C          2.12705       -0.77230        0.80977
C          4.21716       -1.75329       -0.63114
N          2.29973       -2.09489        0.76959
C          3.32379       -2.57607        0.06149
H          1.67740        3.22792       -0.90991
H          2.38292        1.95467       -1.93637
H          0.88080        1.63942       -1.04255
H          2.13394        1.86886        1.14059
H          3.62789        2.18656        0.25762
H          4.70925        0.29912       -1.10918
H          1.28104       -0.41332        1.40618
H          5.04622       -2.18861       -1.19185
H          3.44162       -3.66360        0.04708
