32
3-ETHYL-2,2,3-TRIMETHYLPENTANE.gamout	Energy:    -393.7625969
C         -0.39479       45.93530        0.13532
C          0.60218       44.80105        0.40057
C          2.05606       45.00189       -0.11296
C          2.89286       43.64999        0.09021
C          2.00921       45.35462       -1.62005
C          2.70759       46.24096        0.57833
C          2.52092       42.59588       -0.98066
C          2.63392       42.98499        1.46321
C          4.41036       43.90857       -0.03281
C          2.86490       46.28045        2.10247
H         -1.37606       45.67455        0.55693
H         -0.08421       46.88126        0.60068
H         -0.54143       46.12142       -0.93739
H          0.19897       43.88193       -0.05006
H          0.62182       44.61653        1.48275
H          3.01186       45.34352       -2.06667
H          1.60333       46.36240       -1.77221
H          1.37844       44.65915       -2.18858
H          3.68993       46.41735        0.11665
H          2.10389       47.11307        0.28751
H          3.00648       41.63979       -0.73793
H          2.85604       42.88419       -1.98470
H          1.43931       42.40906       -1.02329
H          3.31362       42.12958        1.58923
H          2.80215       43.66129        2.30726
H          1.61140       42.59417        1.54391
H          4.79959       44.51065        0.79785
H          4.95369       42.95249       -0.02120
H          4.67097       44.41734       -0.97066
H          3.18172       47.28659        2.41342
H          1.92338       46.06109        2.62578
H          3.62361       45.57781        2.46992
