29
3-ETHYL-4-METHYLHEXANE.gamout	Energy:    -354.5166203
C          2.40329        3.93443        2.55027
C          3.67488        3.12788        2.15330
C          3.36261        1.66526        1.76596
C          4.77878        3.20174        3.23023
C          1.53861        3.21899        3.60927
C          1.58168        4.32798        1.31289
C          4.44089        0.99957        0.90514
C          5.48549        4.55702        3.32830
C          0.52353        4.12428        4.31484
H          2.75412        4.87512        3.00660
H          4.07813        3.61878        1.24934
H          2.40946        1.62273        1.21832
H          3.20964        1.07325        2.68308
H          5.53510        2.43060        3.02209
H          4.35004        2.93623        4.21046
H          2.19231        2.76981        4.37223
H          1.00700        2.37825        3.13497
H          1.21630        3.44186        0.77225
H          0.70557        4.93291        1.58241
H          2.18808        4.92066        0.61229
H          4.59033        1.55394       -0.03394
H          5.41092        0.95040        1.42044
H          4.15636       -0.03002        0.64414
H          5.96245        4.82007        2.37168
H          4.79068        5.36865        3.58833
H          6.27017        4.53943        4.09852
H         -0.21407        4.54144        3.61471
H          1.02623        4.96752        4.81292
H         -0.03182        3.56540        5.08161
