21
3-ETHYL-2-PENTENE.gamout	Energy:    -274.7824957
C          3.32281        0.62301        2.40485
C          3.11156        1.84720        1.53298
C          4.38695        2.60192        1.20720
C          1.90232        2.24447        1.09828
C          3.34811        0.93888        3.91067
C          4.26163        3.90947        0.42795
C          0.57124        1.59444        1.35249
H          4.27896        0.14941        2.12565
H          2.54543       -0.12831        2.20876
H          5.05212        1.91385        0.65363
H          4.92008        2.79991        2.15447
H          1.85119        3.15000        0.48772
H          4.12741        1.67603        4.15363
H          2.38397        1.35313        4.23980
H          3.54985        0.03142        4.49932
H          5.25358        4.35521        0.27020
H          3.64554        4.64360        0.96801
H          3.80776        3.75130       -0.56144
H         -0.10712        2.28588        1.87986
H          0.64067        0.67902        1.95264
H          0.07375        1.33780        0.40216
