19
3-HEPTYNE.gamout	Energy:    -273.5404165
C          5.69829        2.38906        1.41756
C          4.23436        2.30865        1.44851
C          3.02193        2.25455        1.49340
C          6.30470        3.30475        2.50182
C          1.55966        2.15548        1.52830
C          5.89905        4.77304        2.37168
C          1.01789        0.81135        1.01387
H          6.11385        1.37386        1.52817
H          6.02020        2.74219        0.42223
H          7.40115        3.21582        2.44361
H          6.00973        2.92337        3.49187
H          1.21338        2.31897        2.56263
H          1.12828        2.97814        0.93367
H          4.80755        4.88940        2.43565
H          6.22424        5.18961        1.40554
H          6.35315        5.37925        3.16893
H          1.40400       -0.02212        1.61718
H         -0.08055        0.79682        1.06454
H          1.31871        0.64108       -0.02937
