22
3-HEPTANONE.gamout	Energy:    -349.9472856
C          4.56518        2.59160        1.66894
C          3.78020        3.04572        2.89178
C          2.38447        2.45734        3.05284
O          4.23523        3.83618        3.69329
C          6.00635        3.09276        1.60865
C          1.58653        3.03787        4.21570
C          6.73795        2.66429        0.33233
C          8.17757        3.17721        0.26261
H          4.52697        1.48882        1.62559
H          4.00163        2.92534        0.77837
H          1.84806        2.58496        2.09676
H          2.50288        1.36484        3.16393
H          6.55355        2.72936        2.49318
H          6.00678        4.19048        1.69129
H          2.10469        2.87162        5.16947
H          0.59291        2.57220        4.27348
H          1.45656        4.12262        4.10069
H          6.73482        1.56308        0.26077
H          6.17581        3.02575       -0.54589
H          8.20653        4.27668        0.30720
H          8.77577        2.79639        1.10472
H          8.67193        2.86518       -0.66866
