16
3-HEXYNE.gamout	Energy:    -234.2816161
C          1.87337        2.30263        1.24676
C          0.72171        3.20561        1.33050
C          1.04147        4.65715        0.93352
C          2.83427        1.56442        1.17143
C          4.00439        0.68597        1.08310
C          5.34549        1.43960        1.06640
H          0.32273        3.18680        2.35871
H         -0.08613        2.81920        0.68655
H          0.14124        5.28360        1.01633
H          1.40510        4.70835       -0.10246
H          1.81859        5.07869        1.58654
H          3.92161        0.06497        0.17527
H          3.99034       -0.01818        1.93207
H          5.39984        2.12192        0.20635
H          6.18272        0.72957        0.99923
H          5.46962        2.03674        1.98075
