16
3-HYDROXYBENZOIC_ACID.gamout	Energy:    -495.4571505
C          6.35305        1.87284       -0.63175
C          6.89012        0.61029       -0.33805
C          4.96929        2.04220       -0.70370
O          7.23060        2.89539       -0.83717
C          4.11745        0.94879       -0.48212
C          4.64972       -0.31532       -0.18830
C          2.65023        1.19065       -0.57217
C          6.03691       -0.47110       -0.11913
O          2.14080        2.26095       -0.82240
O          1.90867        0.08240       -0.34447
H          7.97358        0.49804       -0.28630
H          4.52772        3.01466       -0.93051
H          6.76265        3.71623       -1.03062
H          3.98535       -1.15980       -0.01740
H          6.46094       -1.45029        0.10868
H          0.97736        0.33939       -0.42424
