16
3-METHYL-1,2-PENTADIENE.gamout	Energy:    -234.2842005
C          0.77297        0.05136        0.06953
C          2.08339        0.00658        0.03252
C          3.39777       -0.03124        0.00159
C          4.16989       -0.98820       -0.89162
C          3.32962       -1.91762       -1.76423
C          4.23543        0.88847        0.86546
H          0.20284        0.70783       -0.59575
H          0.19784       -0.56747        0.76588
H          4.83974       -1.58597       -0.24780
H          4.84325       -0.38445       -1.52614
H          2.68111       -2.55876       -1.15042
H          3.97502       -2.56650       -2.37271
H          2.68292       -1.34432       -2.44361
H          3.61257        1.54439        1.48515
H          4.88996        1.51734        0.23947
H          4.89106        0.30011        1.52851
