24
3-METHYL-CIS-2-HEPTENE.gamout	Energy:    -314.0429869
C          0.37062       19.86757       -0.67044
C          1.20265       20.76169        0.25191
C          1.19253       22.23731       -0.15994
C          2.03843       23.13230        0.76618
C          1.99205       24.60243        0.40406
C          2.96188       25.24088       -0.27566
C          0.75195       25.33807        0.85417
C          4.25277       24.68138       -0.80328
H          0.40182       18.81709       -0.34657
H         -0.68416       20.18326       -0.68299
H          0.74264       19.91087       -1.70572
H          2.24441       20.39916        0.27256
H          0.82827       20.67238        1.28570
H          0.15161       22.60001       -0.17765
H          1.56820       22.33525       -1.19199
H          3.07373       22.76325        0.76246
H          1.67365       23.00959        1.80122
H          2.80729       26.30588       -0.48355
H          0.66195       25.31899        1.95360
H          0.75995       26.38732        0.52961
H         -0.16275       24.86788        0.45727
H          4.39731       23.62183       -0.55900
H          4.30114       24.77851       -1.90101
H          5.11496       25.24095       -0.40364
