21
3-METHYL-3-PENTANOL.gamout	Energy:    -311.8866917
C          0.01543        1.51101       -0.46122
C         -0.00003        0.04555       -0.01984
C          1.25456       -0.31275        0.81296
C          2.60222       -0.08892        0.12660
C         -1.25544       -0.28713        0.82252
C         -2.60350       -0.05665        0.13914
O         -0.01223       -0.71687       -1.23874
H          0.88665        1.71294       -1.09608
H         -0.88036        1.75119       -1.04661
H          0.05310        2.17761        0.41169
H          1.21629        0.25555        1.75664
H          1.16626       -1.37407        1.10403
H          2.64293       -0.60082       -0.84491
H          2.80150        0.97760       -0.04800
H          3.41991       -0.47653        0.75066
H         -1.17895       -1.34536        1.12758
H         -1.20670        0.29403        1.75788
H         -2.78675        1.00848       -0.05928
H         -2.65920       -0.59027       -0.81984
H         -3.42314       -0.41655        0.77716
H         -0.01429       -1.65833       -1.02813
