18
3-METHYL-CIS-2-PENTENE.gamout	Energy:    -235.5250766
C          3.46242        1.91751        1.22513
C          2.10751        2.59528        1.17146
C          0.94528        1.93776        1.00554
C          2.13043        4.09694        1.32992
C          4.00834        1.73836        2.65263
C          0.72508        0.46073        0.84403
H          3.41883        0.93506        0.73567
H          4.18209        2.51697        0.64157
H          0.02968        2.54015        0.99799
H          2.59581        4.39593        2.28383
H          1.12062        4.52717        1.29742
H          2.72988        4.56598        0.53113
H          4.11410        2.70171        3.17223
H          4.99872        1.25913        2.63439
H          3.33479        1.10850        3.25191
H          0.14550        0.05577        1.69093
H          0.13320        0.25041       -0.06235
H          1.65804       -0.11229        0.77687
