21
3-METHYL-TRANS-2-HEXENE.gamout	Energy:    -274.7841968
C          0.49035        3.04618        1.48592
C          1.92161        2.91933        2.01292
C          2.85581        2.18230        1.03431
C          4.28962        2.05114        1.50881
C          5.27351        2.72842        0.88872
C          4.50285        1.12927        2.68534
C          6.74233        2.74998        1.20280
H          0.04355        2.05590        1.30604
H          0.46568        3.59951        0.53430
H         -0.15399        3.57922        2.20012
H          1.90558        2.39402        2.98069
H          2.33610        3.92099        2.21121
H          2.83942        2.70946        0.06757
H          2.43860        1.17542        0.84802
H          4.98220        3.35542        0.03789
H          4.08325        0.13191        2.47091
H          3.98414        1.49977        3.58438
H          5.55968        1.00021        2.94392
H          7.33374        2.42636        0.32989
H          7.01416        2.10672        2.04848
H          7.07565        3.77392        1.44187
