18
3-METHYL_SULFOLANE.gamout	Energy:    -744.5341371
O          0.95324       -3.03061       -0.36986
S          0.87775       -2.09339        0.77250
O          0.32776       -2.54411        2.06986
C          0.03510       -0.54450        0.24639
C          2.52514       -1.31136        1.04177
C          0.98340        0.59729        0.64001
C          2.41569        0.06899        0.39266
C          0.68356        1.89915       -0.10292
H         -0.94245       -0.51931        0.74038
H         -0.08995       -0.62269       -0.84194
H          2.65694       -1.25949        2.12984
H          3.27709       -1.97426        0.59999
H          0.87141        0.77448        1.72307
H          2.59546       -0.00833       -0.69150
H          3.16791        0.75847        0.80088
H         -0.33704        2.25253        0.10046
H          1.38102        2.69185        0.20465
H          0.78420        1.76209       -1.19039
