16
3-METHYLTHIACYCLOPENTANE.gamout	Energy:    -594.3116295
C          6.29282        2.40845       -1.87691
C          6.04725        1.40876       -0.74401
C          6.90132        1.66812        0.50714
C          6.68631        0.49534        1.46414
S          6.54146       -1.01648        0.40280
C          6.33325       -0.04356       -1.15597
H          5.66918        2.18019       -2.75319
H          6.05657        3.43337       -1.55539
H          7.34619        2.38821       -2.19677
H          4.98629        1.46797       -0.44562
H          7.96274        1.72264        0.21489
H          6.63880        2.62502        0.98390
H          7.51956        0.36084        2.16527
H          5.76040        0.61540        2.04426
H          7.25821       -0.10830       -1.74778
H          5.51431       -0.47860       -1.74327
