21
3-METHYL-1-HEXENE.gamout	Energy:    -274.7761569
C          2.64162        0.99473        3.37619
C          3.44627        1.25998        2.07857
C          4.21747        2.55621        2.13649
C          2.56299        1.19916        0.81859
C          1.56149        2.02299        3.73630
C          5.54869        2.66345        2.19371
C          0.80366        1.65612        5.01448
H          2.16956        0.00102        3.28509
H          3.35375        0.91861        4.21427
H          4.18572        0.44542        2.00323
H          3.61977        3.47501        2.12206
H          1.99717        0.25597        0.78453
H          1.83855        2.02667        0.78959
H          3.17560        1.26490       -0.09117
H          2.02323        3.01525        3.86071
H          0.84397        2.11894        2.90607
H          6.19261        1.77977        2.20404
H          6.04017        3.63707        2.23053
H          0.30369        0.68046        4.91257
H          1.48725        1.58987        5.87497
H          0.03411        2.40359        5.25501
