13
3-METHYL-1-BUTYNE.gamout	Energy:    -195.0137451
C          3.07621        2.17202        0.98759
C          1.74685        2.16254        1.61553
C          0.95973        0.89449        1.23222
C          0.96363        3.44718        1.28275
C          4.16567        2.18013        0.45605
H          1.90650        2.14051        2.70805
H         -0.00948        0.87781        1.75247
H          0.77010        0.86841        0.14948
H          1.51498       -0.01319        1.50353
H          0.77442        3.51631        0.20184
H         -0.00558        3.44485        1.80315
H          1.52097        4.34195        1.59009
H          5.13088        2.18711       -0.00972
