24
3-METHYL-3-HEXANOL.gamout	Energy:    -351.1452665
C          0.65455        1.46701        0.71403
C          0.48910        0.12041        0.00480
C          1.60247       -0.87670        0.40619
C          3.03651       -0.43016        0.11478
C         -0.88328       -0.52176        0.31584
C         -2.11923        0.28272       -0.09875
C         -3.42490       -0.48317        0.12823
O          0.58499        0.41780       -1.39907
H          1.62078        1.92243        0.46576
H         -0.12980        2.16784        0.40406
H          0.59738        1.33787        1.80398
H          1.49431       -1.10667        1.47857
H          1.40564       -1.82516       -0.12317
H          3.15615       -0.14926       -0.94050
H          3.32816        0.43471        0.72659
H          3.74411       -1.24151        0.33643
H         -0.91747       -1.50523       -0.18716
H         -0.93106       -0.74215        1.39569
H         -2.15774        1.22945        0.46135
H         -2.02782        0.55975       -1.15965
H         -3.44230       -1.42225       -0.44672
H         -3.55695       -0.74375        1.19000
H         -4.29581        0.11281       -0.17999
H          0.51031       -0.40028       -1.90477
