16
3-METHYLCYCLOPENTENE.gamout	Energy:    -234.3196199
C          0.63975        2.31732        2.08672
C          1.78644        1.30195        2.04276
C          2.52944        1.11584        3.39485
C          4.01984        0.88360        3.03614
C          4.12210        1.44252        1.63527
C          2.91624        1.66292        1.09760
H          1.01263        3.31371        2.36977
H          0.14599        2.40373        1.10720
H         -0.12395        2.01919        2.82102
H          1.36040        0.33181        1.71979
H          2.43696        2.04329        3.98235
H          2.10376        0.30565        4.00328
H          4.70843        1.37050        3.74437
H          4.28033       -0.19051        3.04268
H          5.07370        1.60040        1.12399
H          2.73865        2.02886        0.08400
