32
3-METHYL-4-ETHYLHEPTANE.gamout	Energy:    -393.7736065
C          0.60172       21.19100        1.42076
C          1.75355       22.16906        1.18528
C          1.68834       22.86704       -0.18056
C          2.82592       23.89053       -0.43627
C          3.49211       23.73667       -1.83326
C          2.37314       25.34633       -0.19801
C          4.28300       22.42147       -1.99104
C          2.50477       23.91018       -2.99751
C          5.48216       22.25942       -1.05135
C          1.94007       25.66942        1.23442
H          0.68650       20.69704        2.39948
H         -0.36955       21.70860        1.39003
H          0.58242       20.40471        0.64992
H          2.71375       21.63243        1.26151
H          1.76553       22.92201        1.98799
H          0.71038       23.36596       -0.28686
H          1.69784       22.08254       -0.95246
H          3.61763       23.69329        0.30477
H          4.23089       24.55472       -1.91207
H          3.20280       26.01668       -0.47670
H          1.54278       25.59007       -0.88007
H          3.60365       21.56075       -1.87507
H          4.64515       22.37122       -3.03080
H          3.03540       23.87351       -3.96024
H          1.97590       24.87149       -2.95114
H          1.74608       23.11311       -3.01319
H          6.04296       21.34502       -1.29188
H          6.17313       23.11139       -1.14594
H          5.18001       22.18922        0.00293
H          1.69647       26.73651        1.33660
H          1.04667       25.10032        1.52812
H          2.73854       25.43855        1.95619
