24
3-METHYL-CIS-3-HEPTENE.gamout	Energy:    -314.0423100
C          2.04254        0.82958       -0.69809
C          2.12976       -0.59331       -0.11751
C          2.61035       -0.63252        1.31989
C          1.79665       -0.78452        2.38086
C          0.30317       -0.96424        2.39883
C         -0.13388       -2.29820        3.03253
C         -1.65340       -2.45095        3.12924
C          4.10098       -0.47299        1.50581
H          1.72766        0.80419       -1.75212
H          3.01268        1.34543       -0.65275
H          1.31552        1.43504       -0.13762
H          2.82338       -1.18733       -0.73700
H          1.14761       -1.07577       -0.21077
H          2.26391       -0.79106        3.37299
H         -0.12064       -0.88698        1.38716
H         -0.14905       -0.14019        2.98095
H          0.31009       -2.38061        4.03850
H          0.28885       -3.12811        2.44346
H         -2.09497       -1.64777        3.73962
H         -1.93126       -3.41141        3.58728
H         -2.12078       -2.40688        2.13336
H          4.64781       -1.29140        1.00728
H          4.38005       -0.47086        2.56780
H          4.46669        0.46552        1.05788
