24
3-METHYL-1-HEPTENE.gamout	Energy:    -314.0368825
C         51.98884       29.95121       -0.06998
C         50.75174       29.02801       -0.08425
C         49.93191       29.21615       -1.33639
C         51.17137       27.55417        0.06486
C         51.67295       31.44800       -0.02092
C         48.65478       29.60603       -1.38668
C         52.92442       32.33077        0.00311
C         52.61547       33.82792        0.06308
H         52.60945       29.68396        0.80192
H         52.60668       29.73478       -0.96006
H         50.11810       29.29327        0.77998
H         50.45439       28.99580       -2.27639
H         50.29413       26.89361        0.09626
H         51.75008       27.40402        0.98872
H         51.80159       27.23834       -0.78140
H         51.04694       31.72315       -0.88529
H         51.06156       31.65807        0.87475
H         48.12485       29.70816       -2.33518
H         48.09321       29.83487       -0.47712
H         53.54866       32.04943        0.86838
H         53.53346       32.11870       -0.89229
H         53.53711       34.42778        0.07906
H         52.02281       34.14604       -0.80854
H         52.03720       34.07797        0.96619
