20
3-METHYLISOQUINOLINE.gamout	Energy:    -440.6742940
C         -2.62332       -1.49820        1.43365
C         -2.61902       -2.76155        2.25102
C         -1.64799       -1.21314        0.49575
N         -3.65778       -0.64006        1.67590
C         -1.69885       -0.00376       -0.24834
C         -3.73077        0.48369        1.00458
C         -2.78751        0.88658        0.01577
C         -0.73750        0.36679       -1.23002
C         -2.88678        2.11017       -0.69879
C         -0.85833        1.56164       -1.90885
C         -1.93952        2.44282       -1.64433
H         -3.54576       -3.32866        2.07580
H         -1.76089       -3.40317        2.01212
H         -2.59249       -2.51772        3.32381
H         -0.83153       -1.91663        0.32193
H         -4.57689        1.14340        1.23037
H          0.09697       -0.30544       -1.43903
H         -3.72226        2.78142       -0.48811
H         -0.11473        1.83587       -2.65966
H         -2.01648        3.38319       -2.19264
