23
3-METHYLHEXANE.gamout	Energy:    -276.0042870
C          3.21093        3.33148        1.14507
C          4.04095        2.14108        1.66340
C          1.77675        3.41456        1.67980
C          5.53057        2.34228        1.32186
C          3.50630        0.80012        1.14011
C          6.48789        1.31228        1.92687
C          1.01555        4.64202        1.17296
H          3.73414        4.26604        1.40997
H          3.18816        3.30169        0.04075
H          3.95484        2.13457        2.76634
H          1.21647        2.50748        1.40441
H          1.80540        3.43123        2.78257
H          5.64607        2.35217        0.22375
H          5.82954        3.34616        1.66462
H          3.59128        0.75329        0.04223
H          4.06170       -0.05105        1.55601
H          2.44942        0.65376        1.40046
H          7.53155        1.55662        1.68204
H          6.40002        1.28725        3.02434
H          6.29469        0.29645        1.55355
H          0.93818        4.63477        0.07460
H         -0.00558        4.67733        1.57926
H          1.52478        5.57412        1.46289
