19
3-METHYL-1,5-HEXADIENE.gamout	Energy:    -273.5461083
C          3.48886        0.94264        1.91660
C          2.91934        2.12174        1.08162
C          1.45747        2.37515        1.41425
C          3.77163        3.39382        1.22707
C          4.85479        0.49264        1.48037
C          0.98446        2.76767        2.60160
C          5.93933        0.42056        2.25845
H          2.78733        0.09592        1.82613
H          3.50589        1.22265        2.98153
H          2.96134        1.81330        0.02392
H          0.74001        2.21491        0.60255
H          3.78479        3.73627        2.27240
H          3.36531        4.20885        0.61226
H          4.81066        3.20986        0.91961
H          4.94165        0.18652        0.43041
H         -0.08357        2.92485        2.75997
H          1.63618        2.94973        3.46017
H          5.90874        0.71183        3.31177
H          6.89552        0.06477        1.87085
