21
3-METHYL-TRANS-3-HEXENE.gamout	Energy:    -274.7835781
C          3.27220        2.49486        2.34526
C          4.49046        1.92508        2.30531
C          5.64708        2.52501        1.52761
C          4.85165        0.64291        3.01587
C          2.03212        2.01219        3.05013
C          5.39768        3.82982        0.77394
C          0.88063        1.70269        2.07879
H          3.12839        3.42547        1.78766
H          6.48913        2.66709        2.22953
H          6.00682        1.75974        0.81509
H          5.67803        0.81222        3.72703
H          4.01632        0.20383        3.57123
H          5.21186       -0.11075        2.29522
H          2.24164        1.12494        3.66264
H          1.69574        2.79555        3.75275
H          5.09624        4.63918        1.45526
H          6.31281        4.15155        0.25777
H          4.60901        3.71458        0.01626
H          1.15340        0.88690        1.39287
H         -0.02817        1.40477        2.62266
H          0.63368        2.58376        1.46663
