24
3-METHYL-2-ISOPROPYL-1-BUTENE.gamout	Energy:    -314.0368824
C          0.06558       19.33199       -0.64737
C          1.35008       19.80370        0.05823
C          1.28000       21.28701        0.43331
C          1.68238       18.91378        1.26798
C          2.26842       22.23689       -0.22926
C          0.37989       21.74491        1.31445
C          3.72545       21.90730        0.14280
C          2.08491       22.29391       -1.75679
H          0.15982       18.28281       -0.96594
H         -0.80252       19.40496        0.02346
H         -0.14518       19.94278       -1.53600
H          2.17218       19.68116       -0.66264
H          2.61976       19.22608        1.74930
H          1.78964       17.86338        0.95779
H          0.88641       18.96162        2.02526
H          2.04889       23.24304        0.16327
H          0.33294       22.80342        1.57704
H         -0.34140       21.08978        1.80661
H          4.41188       22.64208       -0.30361
H          3.87098       21.92395        1.23205
H          4.02477       20.91419       -0.22471
H          2.77264       23.03114       -2.19685
H          1.05870       22.58252       -2.02410
H          2.29942       21.32378       -2.23024
