26
3-METHYLHEPTANE.gamout	Energy:    -315.2631623
C          4.62936        2.66253        1.93311
C          3.34168        1.97358        1.44191
C          2.11537        2.85116        1.75922
C          3.19679        0.55307        2.00631
C          5.94032        2.00935        1.48374
C          0.79410        2.37427        1.15075
C          7.18561        2.79311        1.91293
C          8.49841        2.14327        1.47145
H          4.62216        3.70820        1.58135
H          4.60837        2.71593        3.03650
H          3.41198        1.89510        0.34057
H          2.00904        2.93180        2.85523
H          2.32141        3.87347        1.40201
H          3.11588        0.57878        3.10525
H          2.30261        0.04898        1.61574
H          4.05947       -0.07559        1.74871
H          6.01271        0.98603        1.88575
H          5.93686        1.90602        0.38416
H         -0.00928        3.10044        1.34128
H          0.88197        2.25353        0.05969
H          0.46825        1.41115        1.56873
H          7.12672        3.81724        1.50777
H          7.18070        2.90141        3.01087
H          8.54657        2.05021        0.37533
H          9.36820        2.73261        1.79597
H          8.60205        1.13225        1.89488
