16
3-METHYL-1,4-PENTADIENE.gamout	Energy:    -234.2908790
C          1.78756        1.28565        1.75934
C          3.03434        1.70190        1.01094
C          4.27243        1.26263        1.76065
C          3.04871        3.23019        0.78627
C          0.83089        0.48378        1.28455
C          5.21437        0.44270        1.28727
H          1.68388        1.69869        2.77034
H          3.03006        1.20343        0.02801
H          4.38266        1.67422        2.77154
H          3.05278        3.76875        1.74705
H          3.94565        3.53154        0.22684
H          2.15861        3.54803        0.22504
H          0.89519        0.04879        0.28368
H         -0.04899        0.23218        1.87890
H          5.14296        0.00839        0.28661
H          6.08876        0.17522        1.88277
