16
3-METHYL-TRANS-1,3-PENTADIENE.gamout	Energy:    -234.2974805
C          1.94777        0.60259        4.12748
C          2.87699        1.09564        3.08329
C          2.45856        1.83506        2.03374
C          4.33886        0.71813        3.25693
C          0.62053        0.78203        4.22559
C          3.30522        2.38067        0.92369
H          2.42539        0.01483        4.91810
H          1.39369        2.07516        1.96395
H          4.69469        0.07773        2.43454
H          4.98854        1.60590        3.28153
H          4.49777        0.16717        4.19295
H          0.06540        0.35407        5.06048
H          0.04165        1.35045        3.49486
H          4.35873        2.08774        1.00424
H          2.93329        2.03852       -0.05691
H          3.26212        3.48332        0.90161
