24
3-METHYL-2-ETHYL-1-PENTENE.gamout	Energy:    -314.0388060
C          1.07489        0.99427        0.94063
C          2.01243        1.59410        1.98840
C          1.74494        3.02601        2.40804
C          2.70343        3.63700        3.42768
C          0.72811        3.74942        1.91685
C          2.69483        2.90437        4.78782
C          4.13815        3.75195        2.87900
C          1.33006        2.86295        5.47717
H          0.03388        0.97201        1.29387
H          1.37175       -0.03832        0.71135
H          1.10126        1.56645        0.00204
H          1.99381        0.95650        2.88881
H          3.04964        1.52405        1.62002
H          2.34521        4.66294        3.61361
H          0.02891        3.35468        1.18013
H          0.56279        4.77828        2.24173
H          3.41943        3.41100        5.44566
H          3.08078        1.88033        4.65658
H          4.76944        4.32141        3.57672
H          4.14989        4.26964        1.90966
H          4.60665        2.76584        2.74440
H          0.95307        3.87946        5.66818
H          1.39335        2.34134        6.44286
H          0.58055        2.34648        4.86073
