29
3-METHYLOCTANE.gamout	Energy:    -354.5218101
C          4.46919        0.61113        0.21204
C          3.24056       -0.30105        0.20651
C          1.91245        0.45989        0.14525
C          0.68014       -0.45100        0.14632
C         -0.64229        0.32005        0.08285
C         -1.91347       -0.54531       -0.01484
C         -3.14074        0.34741       -0.28468
C         -4.44048       -0.39945       -0.59547
H          4.45167        1.29375        1.07585
H          5.40123        0.02989        0.26411
H          4.50968        1.22862       -0.69866
H          3.29988       -0.99265       -0.65086
H          3.25048       -0.93577        1.10877
H          1.85050        1.15272        1.00264
H          1.89708        1.09388       -0.75841
H          0.73908       -1.14211       -0.71275
H          0.70887       -1.08216        1.04884
H         -0.72453        0.97710        0.96710
H         -0.61077        0.99305       -0.79074
H         -3.29484        1.01202        0.58333
H         -2.90473        1.01148       -1.13235
H         -4.31008       -1.08056       -1.45073
H         -4.79081       -0.99657        0.25815
H         -5.24424        0.30613       -0.85134
C         -2.10559       -1.42774        1.22736
H         -1.79241       -1.21288       -0.88843
H         -2.22336       -0.80543        2.12917
H         -1.24852       -2.09511        1.38853
H         -2.99561       -2.06519        1.14021
