13
3-METHYL-1,2-BUTADIENE.gamout	Energy:    -195.0255208
C          3.06029        2.84123        1.49157
C          2.07710        2.01161        1.21772
C          2.30334        0.51828        1.11190
C          0.66221        2.50084        0.99245
C          4.04085        3.66802        1.76476
H          1.67461       -0.02015        1.84068
H          2.01858        0.15494        0.11036
H          3.35177        0.25207        1.29354
H          0.30945        2.21018       -0.01120
H         -0.02618        2.04137        1.72144
H          0.58901        3.59136        1.08469
H          4.64688        4.12158        0.97351
H          4.29326        3.93862        2.79535
