12
3-METHYLTHIOPHENE.gamout	Energy:    -591.8975812
C          3.48552        0.55100        0.91239
C          2.81178        1.89520        0.85669
C          1.38880        2.07086        0.75582
C          3.46457        3.10390        0.89278
C          1.00357        3.38477        0.71819
S          2.37005        4.44944        0.80642
H          3.12633       -0.03903        1.77037
H          3.27783       -0.03603        0.00366
H          4.57476        0.65277        1.00585
H          0.68315        1.24000        0.71319
H          4.53569        3.27935        0.96636
H         -0.00274        3.79037        0.64479
