17
3-NITROBENZOIC_ACID.gamout	Energy:    -624.5909517
O          8.15042        2.73527       -1.77516
C          6.92556        3.07968       -1.32779
O          6.51560        4.21672       -1.35697
C          6.14727        1.91813       -0.80133
C          6.67485        0.62034       -0.79258
C          4.85444        2.15426       -0.30606
C          5.89044       -0.41366       -0.28473
C          4.08882        1.10152        0.19720
N          6.43944       -1.78477       -0.27138
C          4.60358       -0.19648        0.21181
O          5.73034       -2.67357        0.17877
O          7.56835       -1.95000       -0.70963
H          8.58482        3.54039       -2.09675
H          7.67185        0.41136       -1.17075
H          4.46765        3.17303       -0.32476
H          3.08584        1.28938        0.58104
H          4.02895       -1.03622        0.59837
