25
3-NONYNE.gamout	Energy:    -352.0571340
C          4.52445        2.11713        2.46521
C          4.48729        3.33504        1.51794
C          5.62428        4.24196        1.69305
C          3.38172        1.11770        2.24556
C          6.57249        4.98069        1.86318
C          1.98200        1.64396        2.58762
C          7.72551        5.86815        2.04032
C          0.88671        0.58669        2.42795
C          8.82724        5.67288        0.98435
H          5.48750        1.60283        2.32733
H          4.51184        2.47644        3.50697
H          4.46253        2.97740        0.47379
H          3.55252        3.89957        1.66677
H          3.58039        0.22358        2.85957
H          3.39449        0.77260        1.19630
H          1.74004        2.51026        1.95143
H          1.98365        2.01739        3.62589
H          7.38069        6.91567        2.02047
H          8.14934        5.70991        3.04622
H          0.84071        0.21603        1.39221
H         -0.10299        0.99250        2.68209
H          1.07298       -0.27900        3.08221
H          9.66203        6.36425        1.17033
H          9.21569        4.64503        1.01042
H          8.43820        5.86235       -0.02599
