33
3-THIAUNDECANE.gamout	Energy:    -791.8020777
S         -3.96770       -0.73992       -0.00932
C          1.36114       -0.42019        0.00266
C          2.62233        0.44865        0.01102
C          0.06110        0.38920        0.00693
C          3.92660       -0.35355        0.00636
C         -1.20011       -0.48266       -0.00190
C          5.18487        0.52104        0.01450
C         -2.48521        0.34296        0.00219
C          6.48905       -0.27846        0.00944
C         -5.27536        0.54991       -0.00098
C         -6.66178       -0.08534       -0.00954
H          1.37521       -1.09115        0.87896
H          1.37761       -1.07765       -0.88376
H          2.60353        1.10661        0.89734
H          2.60573        1.12001       -0.86525
H          0.04564        1.04584        0.89399
H          0.04851        1.05925       -0.87012
H          3.94474       -1.02488        0.88278
H          3.94664       -1.01128       -0.88026
H         -1.19131       -1.14951        0.87558
H         -1.18838       -1.13595       -0.88946
H          5.16104        1.19218       -0.86083
H          5.15933        1.17845        0.90013
H         -2.52259        0.99753       -0.88274
H         -2.52606        0.98365        0.89703
H          6.55912       -0.91841       -0.88375
H          6.55747       -0.93243        0.89259
H          7.36607        0.38508        0.01554
H         -5.13631        1.19081       -0.88490
H         -5.14024        1.17587        0.89420
H         -6.80972       -0.70491       -0.90556
H         -6.81408       -0.71986        0.87518
H         -7.43539        0.69645       -0.00495
