21
4,4-DIMETHYL-TRANS-2-PENTENE.gamout	Energy:    -274.7829516
C          3.06245        1.59626        1.73353
C          1.73173        2.05668        2.30329
C          4.25233        2.20243        1.81353
C          1.83997        3.39369        3.05275
C          1.21517        0.96840        3.27252
C          0.73094        2.20499        1.13387
C          5.52653        1.67637        1.21665
H          3.01011        0.64260        1.19195
H          4.33719        3.15471        2.34670
H          2.19212        4.19821        2.39120
H          0.85778        3.69059        3.44638
H          2.53336        3.32447        3.90350
H          0.22241        1.23731        3.66474
H          1.89870        0.84283        4.12453
H          1.12493       -0.00435        2.76653
H         -0.26708        2.47952        1.50868
H          0.63376        1.26229        0.57524
H          1.06069        2.98255        0.43021
H          5.36614        0.72089        0.69755
H          5.95218        2.39209        0.49391
H          6.29437        1.52082        1.99255
