24
4,4-DIMETHYL-1-HEXENE.gamout	Energy:    -314.0342502
C          0.87701        3.20514        2.22485
C          1.75488        2.14679        1.54995
C          3.25821        2.11115        1.93703
C          3.91137        3.48193        1.58451
C          3.42688        1.81146        3.43762
C          3.91899        0.98169        1.12193
C          5.40049        3.57112        1.77351
C          6.02128        4.36591        2.65141
H         -0.16448        3.10256        1.88785
H          1.19766        4.22779        1.98070
H          0.87781        3.10356        3.31933
H          1.68908        2.27426        0.45645
H          1.33103        1.15123        1.76184
H          3.43491        4.27214        2.18253
H          3.67587        3.69922        0.52755
H          2.98019        2.59599        4.06404
H          2.94838        0.85591        3.69955
H          4.48937        1.74332        3.70782
H          4.97371        0.84472        1.39587
H          3.87185        1.18918        0.04190
H          3.40516        0.02590        1.30183
H          6.01425        2.93913        1.12301
H          5.46031        5.02461        3.31966
H          7.10937        4.38957        2.72920
