22
4,4-DIMETHYLCYCLOHEXENE.gamout	Energy:    -312.8454246
C          0.73049        2.15183        1.41963
C          2.15426        2.12701        1.99776
C          2.28410        0.93509        2.96622
C          2.43447        3.45845        2.73414
C          3.18066        1.98207        0.84672
C          3.85323        3.54379        3.31327
C          4.58918        2.35264        1.23914
C          4.89291        3.04898        2.34254
H          0.58293        3.01917        0.75877
H         -0.02077        2.20774        2.22181
H          0.52551        1.24334        0.83290
H          1.99856       -0.00242        2.46659
H          1.62461        1.06226        3.83832
H          3.31223        0.81393        3.33243
H          1.68942        3.60476        3.53212
H          2.29253        4.28405        2.01785
H          2.86978        2.61062       -0.00794
H          3.16332        0.94699        0.46500
H          3.92370        2.96577        4.25283
H          4.07891        4.58376        3.60084
H          5.39410        2.03370        0.57075
H          5.94032        3.27153        2.56561
