19
4,4-DIMETHYLCYCLOPENTENE.gamout	Energy:    -273.5792786
C          7.43315        3.82042        3.07372
C          6.43201        3.24060        4.08884
C          6.86907        3.59449        5.51529
C          4.99709        3.77076        3.75946
C          6.31287        1.69602        3.86839
C          4.37225        2.66776        2.94118
C          5.08855        1.53842        3.00027
H          8.44293        3.41677        3.24229
H          7.13712        3.57369        2.04352
H          7.48889        4.91612        3.15773
H          6.91859        4.68504        5.65597
H          6.16562        3.19093        6.25859
H          7.86625        3.18568        5.73935
H          4.41111        3.94721        4.67945
H          5.02736        4.73550        3.22718
H          6.17793        1.15953        4.82487
H          7.22220        1.27511        3.40844
H          3.43221        2.78469        2.39866
H          4.81724        0.60000        2.51295
