24
4,5-DIMETHYL-TRANS-2-HEXENE.gamout	Energy:    -314.0439024
C          1.12131        0.93424        0.01194
C          2.57906        0.61863        0.18624
C          3.56772        0.67256       -0.72568
C          4.99004        0.32111       -0.33961
C          5.58683       -0.92576       -1.03578
C          7.06711       -1.08402       -0.66710
C          4.79239       -2.19455       -0.70477
C          3.37269        1.09454       -2.16198
H          0.80761        1.73018        0.70796
H          0.50032        0.05386        0.24786
H          0.86649        1.25815       -1.00433
H          2.85957        0.30506        1.19814
H          5.64102        1.18377       -0.56946
H          5.04437        0.17120        0.75076
H          5.53469       -0.76688       -2.12626
H          7.18584       -1.24047        0.41700
H          7.64701       -0.19047       -0.94232
H          7.51507       -1.94798       -1.17950
H          4.83427       -2.40861        0.37537
H          5.20245       -3.06665       -1.23473
H          3.73404       -2.09200       -0.98078
H          2.35546        1.44187       -2.37292
H          3.59133        0.26622       -2.85568
H          4.06889        1.90976       -2.42132
