24
4,5-DIMETHYL-CIS-2-HEXENE.gamout	Energy:    -314.0384846
C          1.47922        1.08647       -0.71161
C          2.55298        0.20524       -0.14044
C          2.80015       -0.06437        1.14977
C          2.09132        0.45740        2.37741
C          1.54335       -0.71561        3.24028
C          0.88605       -0.23442        4.54217
C          0.55947       -1.58666        2.44601
C          3.05465        1.37236        3.16030
H          0.83513        0.51813       -1.40295
H          1.92293        1.90546       -1.30204
H          0.83717        1.53436        0.05665
H          3.20912       -0.26622       -0.88010
H          3.64201       -0.73333        1.36698
H          1.22545        1.06620        2.06980
H          2.41069       -1.34470        3.51277
H          0.06008        0.46323        4.32930
H          1.59455        0.27437        5.20837
H          0.46623       -1.08528        5.09798
H         -0.33525       -1.00564        2.17036
H          0.22678       -2.44536        3.04682
H          1.00763       -1.97098        1.52067
H          3.90632        0.79712        3.55708
H          2.55595        1.86554        4.00476
H          3.45745        2.15519        2.50367
