27
4-(MMIM)PHOH+1.gamout	Energy:    -610.7452330
N          1.09388       -0.39972       -0.26594
N         -1.03727       -0.54974        0.15003
C          0.07435       -1.27895       -0.11173
C          0.61926        0.88442       -0.09842
C         -0.71446        0.79147        0.15440
C          2.47982       -0.71120       -0.61645
C         -2.37318       -1.06377        0.45140
H          1.26385        1.75150       -0.17874
H         -1.45357        1.56058        0.34380
H          2.51205       -1.66990       -1.14031
H          2.86010        0.07616       -1.27558
H          3.10879       -0.75959        0.28240
H         -2.84300       -0.40321        1.18816
H         -2.99563       -1.09350       -0.45271
H         -2.28647       -2.07038        0.86989
C          0.15414       -2.73505       -0.21124
C          1.12978       -3.45813        0.50679
C          1.20632       -4.83892        0.41336
C          0.30356       -5.53766       -0.40512
C         -0.67432       -4.83173       -1.12507
C         -0.74488       -3.44787       -1.02736
H          1.82235       -2.93573        1.16635
H          1.94905       -5.40315        0.97541
H         -1.49502       -2.91595       -1.61224
H         -1.37302       -5.36749       -1.76947
O          0.42828       -6.87520       -0.45339
H         -0.22605       -7.28132       -1.03559
