13
4-CHLOROPHENOL.gamout	Energy:    -766.4974788
Cl        -2.26646        0.08205       -0.14384
O          3.61662        0.01391        0.44925
C          2.26114        0.07656        0.31329
C          1.56031        1.28840        0.26354
C          1.56255       -1.13426        0.22198
C          0.17030        1.29216        0.12356
C          0.17529       -1.13225        0.08236
C         -0.51641        0.08111        0.03355
H          2.09888        2.23681        0.33410
H          2.11761       -2.07189        0.26167
H         -0.37445        2.23517        0.08479
H         -0.36926       -2.07355        0.01113
H          3.99935        0.89698        0.50319
