16
4-CHLORO-M-PHENYLENEDIAMINE.gamout	Energy:    -801.9463126
Cl        -2.83071        0.41942        0.27413
N         -1.34572       -2.19725        0.15596
N          3.07317       -0.24689       -0.09406
C         -0.53791       -1.08884        0.11862
C          1.70497       -0.09261       -0.00815
C          0.86136       -1.21407        0.03126
C         -1.07905        0.21513        0.16604
C          1.13214        1.19695        0.04150
C         -0.25055        1.33334        0.12776
H          1.29604       -2.21610       -0.00641
H          1.76920        2.08225        0.01220
H         -0.69694        2.32721        0.16575
H         -0.95722       -3.12504        0.12162
H         -2.34658       -2.09773        0.21855
H          3.68438        0.55247       -0.12284
H          3.49923       -1.15820       -0.13112
