16
4-CHLORO-3-METHYLPHENOL.gamout	Energy:    -805.7604193
Cl        -3.09027        0.89001        0.17202
O          2.65483       -0.40668       -0.29559
C         -0.96913       -0.85002       -0.02455
C          0.40405       -1.10176       -0.13543
C         -1.37653        0.49579        0.03294
C          1.33874       -0.06178       -0.18727
C         -1.95654       -1.98567        0.02950
C         -0.45687        1.54188       -0.01752
C          0.90755        1.26777       -0.12796
H          0.76914       -2.12840       -0.18435
H         -2.54106       -1.95774        0.96143
H         -2.67670       -1.92363       -0.80022
H         -1.44150       -2.95233       -0.02909
H         -0.80682        2.57260        0.02991
H          1.62767        2.08830       -0.16742
H          3.21404        0.37802       -0.32320
