24
4-ETHYL-O-XYLENE.gamout	Energy:    -388.9851037
C          5.94566        3.79994        1.05326
C          6.53597        4.98033        1.84306
C          4.61407        3.32672        1.59633
C          4.55101        2.36168        2.61265
C          3.40696        3.85980        1.12753
C          3.33844        1.92669        3.16342
C          2.18865        3.43804        1.66531
C          3.32930        0.88124        4.25239
C          2.12747        2.47536        2.68115
C          0.79721        2.03287        3.24076
H          6.66389        2.96491        1.06332
H          5.82571        4.09512       -0.00077
H          7.50195        5.29408        1.41928
H          6.69648        4.70679        2.89630
H          5.85590        5.84461        1.82327
H          5.48231        1.92837        2.98735
H          3.41650        4.60856        0.33227
H          1.25857        3.86444        1.28207
H          2.76893       -0.01673        3.94541
H          2.84833        1.25595        5.17009
H          4.34874        0.56822        4.51135
H          0.72626        2.22728        4.32317
H          0.63771        0.95103        3.10284
H         -0.03240        2.55857        2.75109
