17
4-ETHYLPYRIDINE.gamout	Energy:    -326.4860512
C          6.73721       -0.00965        0.24201
C          5.66272        0.14141       -0.84878
C          4.37974       -0.58262       -0.51129
C          3.34101        0.04572        0.19003
C          4.18517       -1.92856       -0.85310
C          2.19026       -0.67899        0.51079
N          2.01357       -1.96161        0.18314
C          2.99785       -2.56713       -0.48666
H          7.65478        0.52721       -0.04058
H          6.38481        0.39497        1.20189
H          6.99327       -1.06774        0.39840
H          6.05655       -0.24301       -1.80224
H          5.44903        1.21039       -1.00209
H          3.42259        1.09513        0.48202
H          4.95056       -2.47778       -1.40605
H          1.37148       -0.19834        1.05511
H          2.83362       -3.61648       -0.75046
