29
4-ETHYL-2-METHYLHEXANE.gamout	Energy:    -354.5193412
C          2.36967        3.61160        2.55262
C          2.26908        3.32732        4.06564
C          1.03393        4.04682        4.64510
C          2.31745        1.82009        4.40555
C          3.59421        3.04672        1.80747
C          0.89529        3.98361        6.16802
C          1.18141        0.96618        3.83289
C          4.91966        3.57681        2.37168
C          3.48512        3.34690        0.30626
H          2.35675        4.70599        2.40660
H          1.45680        3.23977        2.05882
H          3.14964        3.78262        4.55130
H          0.11986        3.64661        4.17620
H          1.08533        5.10402        4.33785
H          2.33333        1.70474        5.50008
H          3.27957        1.41299        4.06009
H          3.59273        1.94943        1.92087
H          0.72057        2.95860        6.52492
H          0.04915        4.59697        6.50942
H          1.80246        4.36086        6.66547
H          1.15239        1.00237        2.73443
H          0.19789        1.29116        4.20176
H          1.30842       -0.08693        4.12218
H          5.06633        3.29827        3.42413
H          4.95581        4.67639        2.30815
H          5.77438        3.18141        1.80380
H          3.48807        4.43323        0.12219
H          4.32793        2.91186       -0.25061
H          2.55536        2.93812       -0.11626
