29
4-ETHYLHEPTANE.gamout	Energy:    -354.5192324
C          4.17367        1.39076        3.23158
C          4.21542        2.43164        4.36836
C          3.33915        2.00382        5.56449
C          5.65015        2.79023        4.81954
C          4.91223        1.79137        1.94876
C          1.82740        2.03277        5.30521
C          6.48003        1.63309        5.38792
C          4.72237        0.78403        0.81164
C          0.99934        1.67884        6.54316
H          4.57336        0.42969        3.59708
H          3.12164        1.19493        2.97219
H          3.77947        3.36560        3.96883
H          3.62854        0.99173        5.89484
H          3.55591        2.67237        6.41510
H          5.57737        3.58455        5.57997
H          6.19382        3.23867        3.97433
H          5.98851        1.90395        2.15135
H          4.55633        2.78377        1.62378
H          1.54391        3.03827        4.95095
H          1.56988        1.33713        4.49154
H          5.99588        1.17495        6.26231
H          7.46970        1.98908        5.70872
H          6.64216        0.84163        4.64213
H          3.65836        0.67671        0.54957
H          5.09552       -0.21129        1.09843
H          5.26125        1.09477       -0.09515
H         -0.07867        1.71361        6.32931
H          1.20083        2.37970        7.36806
H          1.23634        0.66552        6.90297
