19
4-ETHYLCYCLOPENTENE.gamout	Energy:    -273.5778216
C          1.04458       -0.70890        0.44654
C          1.08524        0.62940        0.43946
C         -0.13039        1.22591       -0.23183
C         -1.10931        0.02199       -0.35445
C         -0.20466       -1.23551       -0.21978
C         -1.99124        0.02745       -1.60617
C         -2.96161        1.20909       -1.68371
H          1.82931       -1.35528        0.84405
H          1.90735        1.23179        0.83048
H         -0.56338        2.06601        0.33300
H          0.13871        1.63027       -1.22613
H         -1.76803        0.04722        0.53047
H          0.03739       -1.66492       -1.21028
H         -0.69307       -2.04072        0.35172
H         -2.56401       -0.91408       -1.64193
H         -1.34110        0.02301       -2.49818
H         -3.63767        1.22139       -0.81445
H         -3.58168        1.15506       -2.59015
H         -2.42733        2.17076       -1.70308
