24
4-ETHYL-CIS-2-HEXENE.gamout	Energy:    -314.0383483
C          1.52575        0.77896        1.20304
C          2.55942        0.18225        0.29042
C          2.81722       -1.11672        0.07677
C          2.15554       -2.32195        0.69987
C          1.56755       -3.24857       -0.38713
C          0.45394       -2.61424       -1.22360
C          3.17272       -3.06136        1.60359
C          2.58635       -4.19542        2.45019
H          0.83124        1.42371        0.63953
H          2.00169        1.42264        1.96160
H          0.93204        0.02099        1.72811
H          3.17115        0.90812       -0.25617
H          3.62126       -1.35667       -0.63004
H          1.32377       -1.98922        1.34196
H          1.17751       -4.16010        0.08902
H          2.38846       -3.57505       -1.04900
H         -0.39766       -2.32241       -0.58949
H          0.08108       -3.32010       -1.97954
H          0.80350       -1.71199       -1.74537
H          3.63495       -2.31995        2.27312
H          3.98966       -3.45134        0.97258
H          1.75632       -3.83140        3.07581
H          3.35038       -4.61402        3.12110
H          2.20393       -5.02147        1.83446
