24
4-ETHYL-1-HEXENE.gamout	Energy:    -314.0313981
C          1.74606        0.54976        0.78068
C          1.14368        1.94747        0.93797
C          1.80782        2.82163        2.02097
C          3.23911        3.26476        1.59209
C          0.89577        4.01612        2.36223
C          4.25855        3.25858        2.69949
C          5.38965        2.54640        2.70297
C          1.37904        4.92639        3.49343
H          2.81125        0.58426        0.50885
H          1.22479       -0.01678       -0.00455
H          1.66329       -0.02233        1.71775
H          1.18550        2.48403       -0.02599
H          0.07355        1.84359        1.17908
H          1.90486        2.20205        2.93044
H          3.60666        2.61711        0.78304
H          3.17375        4.27953        1.16069
H         -0.09896        3.62239        2.62695
H          0.74939        4.61823        1.44799
H          4.03738        3.88575        3.56885
H          6.08377        2.58648        3.54384
H          5.66092        1.90000        1.86391
H          1.54676        4.35471        4.41921
H          0.63364        5.70405        3.71298
H          2.31758        5.43972        3.23973
