20
4-HYDROXYPHENYLACETAMIDE.gamout	Energy:    -514.8607997
O         -3.15952       -0.17458        1.27509
O          3.18526        0.52456       -3.13572
N          2.40373        0.94179       -1.05052
C         -0.21761        0.00538       -1.70519
C          0.84902        0.09431       -2.77158
C         -0.48769       -1.20459       -1.04865
C         -0.96730        1.13378       -1.32557
C         -1.46246       -1.29249       -0.05165
C         -1.94122        1.06433       -0.33057
C         -2.19255       -0.15468        0.31286
C          2.25909        0.53427       -2.34084
H          0.98952       -0.87447       -3.27211
H          0.55041        0.80022       -3.56199
H          0.07043       -2.10227       -1.32317
H         -0.79074        2.08786       -1.82719
H         -1.65661       -2.24911        0.44037
H         -2.52436        1.94124       -0.04756
H          3.31779        1.23825       -0.73737
H          1.63792        0.91997       -0.39253
H         -3.25458       -1.05861        1.64798
