17
4-HYDROXYBENZYL_ALCOHOL.gamout	Energy:    -421.4808033
O         -3.18884       -0.48138        0.65458
O          3.18334       -0.03108        0.19182
C         -0.97560        0.07766       -0.25483
C         -0.32297       -1.14626       -0.03611
C         -0.19437        1.24080       -0.31266
C         -2.47899        0.12717       -0.42040
C          1.06181       -1.20759        0.11631
C          1.19301        1.19605       -0.16451
C          1.82579       -0.03281        0.05092
H         -0.91154       -2.06385        0.02093
H         -0.67952        2.20528       -0.48024
H         -2.80152        1.17348       -0.56278
H         -2.78940       -0.43280       -1.31553
H          1.55338       -2.16998        0.28264
H          1.79832        2.10197       -0.20949
H         -2.88482       -0.10051        1.48733
H          3.51351       -0.92532        0.33529
