14
4-HYDROXYBENZONITRILE.gamout	Energy:    -399.2179721
O          3.20839        0.03438       -0.00034
N         -3.54894        0.01075        0.00006
C          1.85237       -0.01881        0.00013
C         -0.95335       -0.00318       -0.00004
C          1.14326       -1.22971        0.00015
C          1.15887        1.20104        0.00009
C         -0.24887       -1.22113        0.00000
C         -0.23063        1.20706        0.00003
C         -2.38798        0.00487       -0.00019
H          1.68222       -2.18009        0.00009
H          1.72656        2.13158        0.00002
H         -0.79929       -2.16225       -0.00004
H         -0.77048        2.15438       -0.00003
H          3.59430       -0.84978       -0.00033
