24
4-METHYL-1-HEPTENE.gamout	Energy:    -314.0352730
C          0.83122        1.18961        0.84897
C          2.08631        1.10292        1.72058
C          3.35709        1.56684        0.99945
C          4.65009        1.46836        1.83241
C          5.88957        1.61992        0.91802
C          4.66285        2.48534        2.98333
C          7.20532        1.30655        1.57471
C          8.06710        0.37250        1.15853
H          0.93983        0.58801       -0.06676
H          0.63265        2.22817        0.54221
H         -0.05565        0.82415        1.38622
H          1.93118        1.69897        2.63340
H          2.22769        0.06209        2.05776
H          3.47718        0.96425        0.08324
H          3.22605        2.61040        0.66066
H          4.68572        0.45488        2.27039
H          5.91029        2.65899        0.53968
H          5.76903        0.97062        0.03656
H          3.80713        2.34224        3.65654
H          4.61201        3.51318        2.58978
H          5.57139        2.40303        3.59499
H          7.46898        1.89759        2.45779
H          7.86056       -0.24298        0.27876
H          9.00925        0.19390        1.67935
