16
4-METHYL-1,2-PENTADIENE.gamout	Energy:    -234.2808437
C          0.94426        0.54886       -0.28445
C          2.10842       -0.02099       -0.08617
C          3.27304       -0.58928        0.11536
C          4.13330       -0.42733        1.35680
C          4.32874       -1.78297        2.05598
C          5.48270        0.21800        1.00023
H          0.86465        1.52988       -0.76267
H          0.01248        0.06196        0.01904
H          3.67468       -1.24195       -0.67171
H          3.60002        0.24492        2.04724
H          4.83866       -2.49635        1.38918
H          3.36450       -2.22255        2.34700
H          4.94408       -1.67145        2.96158
H          6.04140       -0.40983        0.28784
H          6.10479        0.34020        1.89964
H          5.34294        1.20659        0.54096
