29
4-METHYLOCTANE.gamout	Energy:    -354.5216629
C          4.49858        0.30023        0.05624
C          3.16095       -0.12820       -0.55054
C          1.95711        0.18143        0.34663
C          0.62438       -0.29389       -0.24120
C         -0.63267        0.09798        0.55966
C         -1.90331       -0.28757       -0.22221
C         -3.22223        0.22553        0.36769
C         -4.43589       -0.09094       -0.50987
H          4.67956       -0.21321        1.01318
H          5.33847        0.06532       -0.61356
H          4.51859        1.38376        0.25116
H          3.02170        0.36604       -1.52656
H          3.18364       -1.21111       -0.75972
H          2.12211       -0.28586        1.33052
H          1.90976        1.26963        0.52846
H          0.52563        0.10918       -1.26303
H          0.64857       -1.39306       -0.35136
C         -0.62503       -0.49943        1.97465
H         -0.62864        1.19970        0.65973
H         -1.80947        0.09306       -1.25328
H         -1.94771       -1.38832       -0.30958
H         -3.38018       -0.20872        1.36672
H         -3.14988        1.31645        0.51607
H         -4.33549        0.36400       -1.50723
H         -4.55074       -1.17689       -0.65012
H         -5.36523        0.28776       -0.06037
H          0.26071       -0.18737        2.54337
H         -0.62629       -1.60067        1.93027
H         -1.50430       -0.18614        2.55267
