18
4-METHYL-TRANS-2-PENTENE.gamout	Energy:    -235.5236031
C          2.10267        1.79897        3.17840
C          2.37727        1.30133        1.77700
C          0.91930        1.89470        3.79601
C          3.11433        2.38180        0.96272
C          1.13697        0.79739        1.03274
C          0.71465        2.41005        5.19172
H          2.99427        2.12501        3.72968
H          3.07599        0.44853        1.87775
H          0.01344        1.57816        3.26882
H          2.46536        3.25663        0.80236
H          3.41599        1.99458       -0.02247
H          4.02148        2.72751        1.48064
H          1.41457        0.41093        0.04223
H          0.63592       -0.01147        1.58317
H          0.40894        1.60955        0.88184
H          0.04173        3.28374        5.19865
H          0.24250        1.64616        5.83175
H          1.66535        2.70611        5.65740
