16
4-METHYL-1,3-PENTADIENE.gamout	Energy:    -234.3072148
C          1.62167        0.65072        0.96495
C          1.97845        1.79734        1.87496
C          3.19505        1.97679        2.44101
C          0.85746        2.77150        2.12843
C          4.37355        1.13250        2.29564
C          5.55455        1.37398        2.89296
H          1.29034        1.02814       -0.01757
H          0.77404        0.07865        1.37956
H          2.44868       -0.04736        0.79652
H          3.32694        2.85317        3.08524
H          1.16239        3.58896        2.79500
H          0.49974        3.21322        1.18239
H         -0.01050        2.26254        2.58216
H          4.29120        0.24688        1.65994
H          5.70151        2.24234        3.54019
H          6.40965        0.71151        2.75301
