14
4-METHYLPYRIDINE.gamout	Energy:    -287.2278436
C          5.59645        0.44827       -0.32934
C          4.35501       -0.39713       -0.19939
C          3.07361        0.17316       -0.21306
C          4.42100       -1.79236       -0.08097
C          1.95145       -0.65278       -0.11596
C          3.23927       -2.53262        0.01064
N          2.02285       -1.98217       -0.00608
H          5.46847        1.42503        0.15818
H          6.46959       -0.04914        0.11478
H          5.82735        0.63846       -1.39024
H          2.94758        1.25499       -0.29619
H          5.38657       -2.30227       -0.05732
H          0.94715       -0.21803       -0.12444
H          3.27983       -3.62225        0.10461
