18
4-METHYL-CIS-2-PENTENE.gamout	Energy:    -235.5227416
C          3.10312        1.97634        1.16243
C          3.45620        2.80188        2.37590
C          2.01738        1.21442        0.96181
C          4.77205        2.30871        3.00636
C          3.54863        4.29412        2.00756
C          0.86495        0.98566        1.89807
H          3.84234        2.02020        0.35278
H          2.66170        2.68999        3.12907
H          1.94909        0.68972        0.00278
H          5.60350        2.39165        2.28866
H          5.02999        2.91060        3.89071
H          4.69685        1.25641        3.31447
H          3.80497        4.90126        2.88898
H          2.59695        4.66316        1.59972
H          4.32804        4.46056        1.24725
H          0.96971        1.52693        2.84612
H          0.75657       -0.08708        2.12968
H         -0.08403        1.29926        1.43179
