24
4-METHYL-3-ETHYL-TRANS-2-PENTENE.gamout	Energy:    -314.0399065
C          0.54835       29.56628       -0.17637
C          1.57379       30.56367        0.39050
C          1.16737       32.01950        0.18876
C          1.87532       30.25714        1.87033
C          1.99756       32.86188       -0.45305
C         -0.17617       32.46593        0.74526
C          1.80198       34.32798       -0.71536
C         -1.29206       32.57638       -0.30811
H          0.36448       29.74577       -1.24497
H          0.91416       28.53529       -0.06253
H         -0.41530       29.63070        0.35099
H          2.51304       30.41803       -0.16736
H          2.65159       30.92896        2.26232
H          2.22738       29.22099        1.98586
H          0.97931       30.37056        2.49947
H          2.93724       32.44664       -0.83457
H         -0.50038       31.76636        1.52980
H         -0.06272       33.43926        1.24659
H          0.90549       34.73709       -0.23345
H          2.67054       34.90501       -0.35759
H          1.71949       34.53017       -1.79671
H         -2.23683       32.89501        0.15801
H         -1.03342       33.30765       -1.08652
H         -1.46933       31.61372       -0.80694
