20
4-METHYL_CYCLOHEXANONE.gamout	Energy:    -348.7470789
C          0.91178       -0.05031        0.13296
C          2.44216       -0.08541        0.00585
C          2.98166        0.95551       -0.99640
C          2.98061       -1.48528       -0.35272
C          2.69132        0.59094       -2.46725
C          3.13851       -0.82413       -2.79892
O          3.81464       -1.08093       -3.77460
C          2.69070       -1.89138       -1.81287
H          0.56727        0.95026        0.43261
H          0.56502       -0.76563        0.89315
H          0.40327       -0.30173       -0.80955
H          2.85366        0.17656        0.99470
H          4.07192        1.04603       -0.86488
H          2.56048        1.94834       -0.77597
H          2.55837       -2.24046        0.32767
H          4.07071       -1.49983       -0.19243
H          3.18253        1.28262       -3.16345
H          1.60494        0.64758       -2.65400
H          1.60421       -2.03097       -1.94741
H          3.18074       -2.83680       -2.07838
