26
4-METHYLHEPTANE.gamout	Energy:    -315.2630565
C          5.89657        2.14469        0.90351
C          4.60094        2.01471        1.72636
C          3.37662        2.38979        0.86837
C          4.45454        0.61972        2.35311
C          7.20090        2.00669        1.69739
C          2.07305        2.59833        1.64856
C          8.44857        2.25056        0.84420
C          0.90637        3.05026        0.76736
H          5.89645        3.12822        0.40383
H          5.88257        1.39587        0.09091
H          4.65869        2.75148        2.54930
H          3.22462        1.61345        0.09722
H          3.60422        3.31944        0.31979
H          3.53954        0.53874        2.95461
H          4.41031       -0.15250        1.56819
H          5.29848        0.37925        3.01325
H          7.18399        2.71847        2.54002
H          7.26489        1.00353        2.14629
H          2.24965        3.35107        2.43567
H          1.79120        1.67131        2.17147
H          8.49852        1.53639        0.00803
H          9.36835        2.13929        1.43617
H          8.44526        3.26456        0.41555
H          0.67413        2.29871       -0.00304
H         -0.00470        3.21212        1.36136
H          1.14156        3.99355        0.25062
