24
4-METHYL-TRANS-2-HEPTENE.gamout	Energy:    -314.0417930
C          0.46207        1.87625        1.67625
C          1.97872        1.88620        1.47368
C          2.76307        1.55642        2.74666
C          4.29752        1.58062        2.57808
C          4.80535        2.96977        2.27959
C          4.99403        1.00175        3.82326
C          5.52556        3.32442        1.20862
C          6.04810        4.70247        0.92424
H         -0.06842        2.11371        0.74266
H          0.11146        0.89059        2.01994
H          0.15897        2.61793        2.43145
H          2.25039        1.16041        0.68824
H          2.29440        2.87126        1.09560
H          2.48188        2.26503        3.54646
H          2.46525        0.55807        3.10964
H          4.55238        0.94071        1.71506
H          4.55995        3.73684        3.02682
H          6.08556        0.99758        3.69928
H          4.66203       -0.02981        4.01423
H          4.75849        1.60017        4.71752
H          5.76324        2.55354        0.46546
H          7.14739        4.70110        0.83848
H          5.66046        5.08326       -0.03514
H          5.76632        5.41258        1.71445
