32
4-METHYL-4-ETHYLHEPTANE.gamout	Energy:    -393.7749256
C         -0.12872       39.75955        0.26297
C          1.39540       39.81091        0.12143
C          1.94389       41.23557        0.28262
C          3.47132       41.44859        0.09628
C          3.80252       42.94478        0.35135
C          4.22994       40.58357        1.14129
C          3.89410       41.04606       -1.33176
C          3.12571       43.98765       -0.54871
C          3.58600       45.41380       -0.23122
C          5.75997       40.68186        1.15536
H         -0.50897       38.73392        0.15131
H         -0.44795       40.12881        1.24994
H         -0.61967       40.38390       -0.49937
H          1.67766       39.40882       -0.86424
H          1.84468       39.14027        0.86900
H          1.66339       41.60771        1.28371
H          1.41244       41.87770       -0.43637
H          4.89074       43.08328        0.25718
H          3.55877       43.17674        1.40275
H          3.96134       39.52970        0.97845
H          3.84827       40.84243        2.14323
H          3.24327       41.50597       -2.08811
H          4.92432       41.35931       -1.55127
H          3.84523       39.95752       -1.47379
H          2.03228       43.93501       -0.44054
H          3.34297       43.76766       -1.60546
H          3.08982       46.14951       -0.88033
H          4.67250       45.52176       -0.37211
H          3.35791       45.67963        0.81240
H          6.17482       39.98904        1.90140
H          6.11301       41.68893        1.41594
H          6.19605       40.41287        0.18277
