16
4-METHYL-2-PENTYNE.gamout	Energy:    -234.2825083
C          1.98234        4.24537        1.06211
C          2.10900        2.99603        1.95603
C          0.91276        2.04282        1.76874
C          3.38656        2.30126        1.73300
C          4.43816        1.72688        1.53880
C          5.70880        1.03935        1.31711
H          1.04543        4.77687        1.28475
H          2.82156        4.93500        1.22398
H          1.97397        3.96111       -0.00024
H          2.10203        3.33728        3.00644
H          0.86749        1.67914        0.73185
H          0.99331        1.17098        2.43206
H         -0.03001        2.56355        1.99288
H          6.24750        1.46436        0.45617
H          6.36436        1.12378        2.19761
H          5.55158       -0.03194        1.11791
