21
4-METHYL-2-PENTANOL.gamout	Energy:    -311.8851528
C          2.41714        2.67064        2.72850
C          3.89922        2.71874        3.14771
C          1.53971        1.59525        3.38642
C          4.63714        3.80351        2.35094
C          4.08372        2.93170        4.65716
C          2.01680        0.17139        3.13002
O          0.20497        1.66709        2.87218
H          1.96585        3.65823        2.93658
H          2.35230        2.52426        1.63822
H          4.35482        1.74949        2.88374
H          1.50790        1.76492        4.47783
H          5.70831        3.81950        2.59917
H          4.54272        3.63982        1.26742
H          4.22797        4.80135        2.57621
H          5.15010        3.01736        4.91095
H          3.58920        3.86045        4.98501
H          3.66808        2.10445        5.24878
H          2.09128       -0.01946        2.04922
H          1.30285       -0.54398        3.55886
H          3.00013       -0.00536        3.58561
H         -0.16354        2.54000        3.04801
