22
4-OCTYNE.gamout	Energy:    -312.7995256
C          4.32830        0.98814        1.83172
C          3.11501        0.98357        1.88113
C          1.64961        0.98048        1.93371
C          5.79124        1.01844        1.76422
C          0.98402        2.06994        1.06684
C          6.35862        2.32525        1.17549
C          1.32301        3.49679        1.49819
C          7.88627        2.33238        1.11820
H          1.28132       -0.00927        1.61752
H          1.32642        1.10504        2.98200
H          6.14792        0.16416        1.16314
H          6.20385        0.86759        2.77684
H          1.28091        1.91731        0.01737
H         -0.10606        1.91737        1.11096
H          5.94169        2.46854        0.16667
H          6.00102        3.17194        1.78155
H          2.40707        3.67539        1.45670
H          0.99129        3.68902        2.53063
H          0.83197        4.23302        0.84540
H          8.26705        1.50975        0.49320
H          8.32382        2.21845        2.12212
H          8.26207        3.27486        0.69529
