23
4-PROPOXYPHENOL.gamout	Energy:    -499.9922245
O          1.31475        0.67047       -0.16589
O         -4.10940       -0.43888        0.12861
C          3.67815        0.34188       -0.23608
C          2.31824       -0.33086       -0.12554
C          0.00162        0.30658       -0.08539
C          4.82958       -0.66576       -0.20829
C         -0.93860        1.35030       -0.13595
C         -0.45152       -1.01222        0.04017
C         -2.30083        1.08396       -0.06335
C         -1.82681       -1.27723        0.11321
C         -2.75541       -0.23728        0.06218
H          3.70349        0.92474       -1.16937
H          3.77993        1.06242        0.58950
H          2.17219       -1.04391       -0.95766
H          2.24450       -0.90114        0.81848
H          4.75673       -1.38006       -1.04270
H          5.79887       -0.15533       -0.29057
H          4.83540       -1.24372        0.72871
H         -0.57479        2.37376       -0.23485
H          0.24685       -1.84618        0.08239
H         -3.03198        1.89211       -0.10302
H         -2.16702       -2.31148        0.21159
H         -4.30972       -1.37790        0.21132
