24
5,5-DIMETHYL-1-HEXENE.gamout	Energy:    -314.0363985
C         -0.29980       -0.30141        0.08421
C         -1.83903       -0.47133        0.00102
C          0.23136        1.13235        0.26982
C         -2.13670       -1.96931       -0.20785
C         -2.51454       -0.00827        1.30611
C         -2.41537        0.32010       -1.18906
C          1.72847        1.17461        0.40519
C          2.56493        1.81739       -0.41536
H          0.14891       -0.72129       -0.83054
H          0.07079       -0.92432        0.91587
H         -0.21951        1.57122        1.17565
H         -0.07269        1.76583       -0.57647
H         -3.21985       -2.15099       -0.27281
H         -1.67741       -2.34008       -1.13653
H         -1.74453       -2.57222        0.62509
H         -3.59698       -0.20112        1.27214
H         -2.37835        1.06844        1.47952
H         -2.10678       -0.54500        2.17604
H         -1.92917        0.02671       -2.13184
H         -3.49362        0.13002       -1.29474
H         -2.28338        1.40387       -1.06459
H          2.14654        0.61432        1.25041
H          3.64508        1.80092       -0.25960
H          2.19811        2.38795       -1.27311
