21
5-ETHYLIDENE-2-NORBORNENE.gamout	Energy:    -349.6526881
C         -1.54695        1.00405       -0.15890
C         -1.23480       -1.12122       -0.86138
C         -1.19941        0.29573       -1.49262
C         -0.37076        0.49293        0.74467
C         -0.20016       -0.94386        0.25622
C         -2.77899        0.20571        0.25443
C         -2.59200       -1.06061       -0.15489
C          0.68301       -1.85200        0.68686
C          1.67794       -1.62113        1.79735
H         -1.65675        2.09482       -0.18426
H         -1.06333       -1.98301       -1.51673
H         -0.21109        0.56960       -1.89087
H         -1.96589        0.43633       -2.26588
H         -0.60527        0.55719        1.81730
H          0.54475        1.08110        0.56967
H         -3.59079        0.58193        0.87715
H         -3.21286       -1.92759        0.07079
H          0.68345       -2.83487        0.20637
H          2.29120       -2.51387        1.97686
H          1.17764       -1.36655        2.74633
H          2.36575       -0.79036        1.56664
