17
5-HEXEN-2-ONE.gamout	Energy:    -309.4564482
O         -2.44643        0.30585        1.54696
C         -0.56664       -0.30497        0.21674
C          0.21851        1.01586        0.37859
C         -2.05850       -0.11110        0.47432
C          1.69765        0.82877        0.19560
C         -3.05195       -0.44160       -0.62838
C          2.45031        1.44035       -0.72384
H         -0.38445       -0.73632       -0.77708
H         -0.20762       -1.03049        0.96551
H          0.00946        1.40642        1.38784
H         -0.15644        1.76305       -0.33849
H          2.17592        0.12643        0.88920
H         -3.64573        0.45825       -0.84740
H         -3.75505       -1.19901       -0.25159
H         -2.57860       -0.80473       -1.54841
H          3.52385        1.25818       -0.79444
H          2.02106        2.14989       -1.43636
