21
5-METHYL-TRANS-2-HEXENE.gamout	Energy:    -274.7835553
C          0.70272        1.61144        1.63964
C          2.12215        1.03145        1.66441
C          2.58787        0.75675        3.09903
C          3.10311        1.95380        0.90395
C          4.47074        1.36613        0.69380
C          5.62349        1.89187        1.12532
C          6.98845        1.30774        0.90580
H          0.66813        2.58518        2.15455
H          0.35020        1.76567        0.60897
H         -0.00992        0.94298        2.14466
H          2.09756        0.06658        1.12615
H          1.90896        0.05570        3.60646
H          2.60667        1.68862        3.68705
H          3.59943        0.32866        3.11974
H          2.65978        2.18156       -0.08173
H          3.19049        2.91563        1.43704
H          4.50409        0.42382        0.13101
H          5.58719        2.83385        1.68651
H          7.63583        2.00680        0.35069
H          7.49383        1.11140        1.86601
H          6.94024        0.36459        0.34359
