19
5-METHYL-2-HEXYNE.gamout	Energy:    -273.5422870
C          3.15246        3.22137        1.07896
C          1.96246        2.72955        1.94046
C          4.38329        2.44269        1.23684
C          1.56147        1.29311        1.58844
C          0.77868        3.69389        1.80338
C          5.40099        1.79495        1.37004
C          6.62641        1.01471        1.53021
H          2.84929        3.21381        0.01672
H          3.36129        4.27574        1.32628
H          2.29657        2.74428        2.99176
H          0.74851        0.94189        2.24078
H          1.20594        1.23162        0.54698
H          2.41010        0.60392        1.69611
H          0.41639        3.72821        0.76324
H         -0.06216        3.37871        2.43809
H          1.05609        4.71767        2.09657
H          7.51963        1.64272        1.38793
H          6.68739        0.57099        2.53617
H          6.67503        0.19335        0.79840
