22
5-METHYL-2-HEXANONE.gamout	Energy:    -349.9462924
C          1.94851        2.28342        1.81662
C          3.27970        2.90556        1.39126
C          1.88934        1.76137        3.26663
C          4.41240        1.90900        1.17162
C          2.03961        2.88515        4.30279
C          0.58759        0.98018        3.49064
C          5.80561        2.49169        1.03640
O          4.21373        0.71429        1.08843
H          1.14583        3.02614        1.67416
H          1.72906        1.45058        1.13265
H          3.15849        3.43694        0.42957
H          3.62173        3.68342        2.09279
H          2.72510        1.05492        3.39906
H          1.93032        2.49261        5.32421
H          1.26632        3.65658        4.15652
H          3.02103        3.37747        4.24784
H          0.54209        0.56473        4.50788
H          0.50239        0.14517        2.78039
H         -0.29164        1.63071        3.35506
H          6.51545        1.71045        0.74282
H          5.81718        3.31137        0.30189
H          6.11815        2.92363        2.00075
