21
5-METHYL-1-HEXENE.gamout	Energy:    -274.7778047
C          3.39483        2.42245        2.34305
C          2.09216        2.16437        1.56332
C          3.47762        3.79243        3.03943
C          2.20769        0.87191        0.74312
C          0.85751        2.12060        2.47485
C          4.78418        4.00546        3.75113
C          5.67078        4.96950        3.48551
H          3.52815        1.62173        3.09223
H          4.24734        2.33630        1.65008
H          1.95931        3.00079        0.85358
H          2.65771        3.87991        3.77243
H          3.32661        4.59376        2.29785
H          2.34764        0.00076        1.40287
H          3.06425        0.91221        0.05411
H          1.30092        0.69571        0.14594
H          0.70609        3.06392        3.01748
H          0.95460        1.31394        3.21907
H         -0.05440        1.92811        1.89066
H          5.01354        3.28652        4.54762
H          6.60483        5.05544        4.04333
H          5.49175        5.71009        2.70121
