14
5-METHYLFURFURAL.gamout	Energy:    -382.2031130
O          1.08587        1.07962        1.33660
O         -0.93391        2.32630        2.92807
C          1.76346        0.24645        0.51424
C          0.93867       -0.77581        0.10027
C         -0.18902        0.60525        1.46411
C         -0.32415       -0.54377        0.71445
C          3.18505        0.57799        0.23404
C         -1.14943        1.30970        2.29816
H          1.21433       -1.59019       -0.56412
H         -1.22870       -1.14005        0.62514
H          3.62040       -0.16866       -0.44061
H          3.27170        1.57007       -0.23523
H          3.77455        0.59976        1.16345
H         -2.15144        0.81603        2.31390
