27
5-METHYL-3-HEPTANOL.gamout	Energy:    -390.3951102
C          3.55939        3.58189        2.75568
C          2.52724        2.68965        2.02621
C          4.85377        2.89879        3.25295
C          1.92337        1.62150        2.96199
C          3.05964        2.08655        0.71719
C          6.04542        2.96272        2.28625
O          5.31126        3.48130        4.48042
C          0.66986        0.93029        2.41611
C          6.59555        4.36541        2.01513
H          3.05654        4.01671        3.63407
H          3.81592        4.43559        2.11175
H          1.69949        3.36835        1.75314
H          4.64413        1.82993        3.43259
H          1.67164        2.10076        3.92250
H          2.68119        0.85492        3.19265
H          3.53904        2.85398        0.09262
H          2.24995        1.64015        0.12492
H          3.80138        1.29563        0.90647
H          5.75474        2.48065        1.34227
H          6.84553        2.34280        2.71936
H          4.62999        3.39149        5.15500
H          0.26463        0.21844        3.14906
H         -0.11941        1.66357        2.18884
H          0.87978        0.36851        1.49491
H          6.89264        4.85594        2.95112
H          5.86114        5.01143        1.51234
H          7.47943        4.30799        1.36358
