21
5-VINYLNORBORNENE.gamout	Energy:    -349.6475389
C         -0.95367        1.52832       -0.59187
C         -1.35849       -0.68107       -0.37775
C          0.44543        0.88580       -0.97265
C         -1.43157        0.57230        0.52584
C          0.15535       -0.64381       -0.77267
C         -1.90116        1.12966       -1.71343
C         -2.13781       -0.18747       -1.59000
C          1.57940        1.40066       -0.13348
C          2.67708        2.00016       -0.60646
H         -0.89731        2.59718       -0.35537
H         -1.68958       -1.63335        0.05465
H          0.66835        1.10114       -2.02652
H         -2.45095        0.79623        0.86638
H         -0.75854        0.52920        1.39492
H          0.77007       -1.05345        0.04194
H          0.37232       -1.22773       -1.67613
H         -2.21711        1.78379       -2.52644
H         -2.69128       -0.82600       -2.27882
H          1.47844        1.26933        0.95018
H          3.46364        2.35934        0.05905
H          2.82730        2.14999       -1.67882
