24
6-METHYL-CIS-2-HEPTENE.gamout	Energy:    -314.0357324
C         -1.38838       -2.35920       -0.00882
C          0.01417       -1.95276       -0.36289
C          0.42605       -0.78725       -0.88473
C         -0.41057        0.40220       -1.27814
C          0.14007        1.77961       -0.84935
C          0.10161        2.14487        0.65274
C         -1.30847        2.02027        1.24830
C          1.13221        1.38537        1.50176
H         -1.70753       -3.22621       -0.61115
H         -2.11937       -1.55679       -0.16833
H         -1.45101       -2.67199        1.04664
H          0.77971       -2.71225       -0.17087
H          1.49850       -0.67984       -1.08443
H         -1.44495        0.28684       -0.92691
H         -0.47271        0.41817       -2.38152
H         -0.43811        2.54440       -1.39283
H          1.17789        1.87429       -1.21094
H          0.37808        3.21285        0.69856
H         -1.62621        0.96865        1.31067
H         -2.05097        2.56348        0.64396
H         -1.34092        2.43195        2.26760
H          1.13342        1.76216        2.53576
H          2.14876        1.51000        1.09939
H          0.91524        0.30934        1.53515
