20
6-METHYLQUINOLINE.gamout	Energy:    -440.6732415
C         -3.92209       -5.73813        0.67331
C         -4.86684       -6.89845        0.48293
C         -4.36363       -4.49900        1.09751
C         -2.52915       -5.91116        0.41183
C         -3.46573       -3.40945        1.27531
C         -1.63070       -4.88111        0.57222
C         -2.07030       -3.60010        1.00844
C         -3.87533       -2.12081        1.70941
N         -1.15748       -2.60094        1.15801
C         -2.93427       -1.12560        1.85357
C         -1.57644       -1.42175        1.56180
H         -5.90164       -6.61990        0.72061
H         -4.84259       -7.26181       -0.55676
H         -4.58621       -7.74668        1.12741
H         -5.42473       -4.33993        1.30514
H         -2.17474       -6.88867        0.07614
H         -0.56655       -5.01220        0.37274
H         -4.93032       -1.93470        1.92371
H         -3.21317       -0.12421        2.18488
H         -0.81670       -0.64064        1.67175
