24
6-METHYL-CIS-3-HEPTENE.gamout	Energy:    -314.0397662
C          1.49252        0.40835       -1.08282
C          2.34493       -0.04959        0.11055
C          3.02064       -1.37378       -0.12353
C          4.33247       -1.65406       -0.08790
C          5.47987       -0.72662        0.20260
C          6.55349       -0.69116       -0.91039
C          6.00255       -0.11482       -2.21972
C          7.79192        0.08162       -0.43902
H          0.97489        1.35267       -0.85847
H          0.72800       -0.34215       -1.33670
H          2.11670        0.56277       -1.97519
H          1.69121       -0.14104        0.99672
H          3.08412        0.72547        0.35600
H          2.34065       -2.20234       -0.35435
H          4.62392       -2.69165       -0.28911
H          5.97028       -1.05896        1.13530
H          5.12374        0.29749        0.39138
H          6.86134       -1.73481       -1.10286
H          5.70435        0.93761       -2.08466
H          5.12042       -0.67017       -2.56781
H          6.76160       -0.14779       -3.01511
H          7.53936        1.13123       -0.21849
H          8.57813        0.08413       -1.20825
H          8.21365       -0.36169        0.47518
