20
8-METHYLQUINOLINE.gamout	Energy:    -440.6737175
C         -1.61856       -4.90285        0.56433
C         -0.15410       -5.10229        0.28393
C         -2.08766       -3.61997        1.00541
C         -2.54312       -5.92097        0.41149
C         -3.48405       -3.42316        1.27444
N         -1.18196       -2.61493        1.15723
C         -3.92350       -5.72914        0.67645
C         -4.39025       -4.50520        1.10027
C         -3.89110       -2.13377        1.70830
C         -1.59708       -1.43456        1.56067
C         -2.95317       -1.13626        1.85324
H          0.04545       -6.13071       -0.04401
H          0.19465       -4.40654       -0.49310
H          0.44865       -4.88938        1.17866
H         -2.20192       -6.90289        0.07673
H         -4.61541       -6.56248        0.54136
H         -5.45114       -4.35015        1.30629
H         -4.94649       -1.95031        1.92223
H         -0.83561       -0.65489        1.66951
H         -3.23322       -0.13538        2.18450
