24
8-METHOXYPSORALEN.gamout	Energy:    -762.0331787
O          3.55088        1.25041        0.11745
O         -1.05967       -0.14132        0.23930
O          1.44037       -0.93469        0.34553
O         -3.17583       -0.82780        0.30035
C          1.86720        2.77542       -0.06066
C          2.19161        1.40398        0.09146
C         -0.46160        2.18962       -0.01086
C         -0.10683        0.82519        0.14000
C          1.23396        0.38599        0.19730
C          0.53289        3.17711       -0.11244
C          3.14057        3.46060       -0.12769
C         -1.87473        2.48801       -0.05200
C          4.09399        2.50316       -0.01644
C         -2.80480        1.50965        0.04886
C         -2.42058        0.10797        0.20354
C          2.75667       -1.47480        0.41587
H          0.25506        4.22468       -0.22809
H          3.30964        4.52698       -0.24368
H         -2.17997        3.53034       -0.16805
H          5.17840        2.54276       -0.01372
H         -3.87446        1.71140        0.02022
H          2.62344       -2.55450        0.53518
H          3.30556       -1.07066        1.27743
H          3.31965       -1.26967       -0.50501
