7
AC-1.gamout	Energy:    -228.2594257
C         -4.72961        1.27222        0.00365
C         -4.72161       -0.28809        0.00820
H         -5.47176       -0.66552        0.72182
H         -3.72753       -0.68566        0.26231
H         -5.01138       -0.65698       -0.99047
O         -3.61529        1.83663        0.13981
O         -5.86041        1.80049       -0.14541
