7
ACETALDEHYDE.gamout	Energy:    -153.6417485
C          0.60244        0.83319        0.70586
C          2.02007        1.10343        1.12716
O          2.59504        2.15460        0.97657
H          0.00963        0.53741        1.58730
H          0.16003        1.71631        0.22939
H          0.58374       -0.02483        0.01368
H          2.54564        0.24167        1.61203
