26
ACETYLCHOLINE+1.gamout	Energy:    -480.7133535
O          2.17608       -0.45141        0.00217
O          4.24519       -1.19855       -0.00774
N         -1.21356        1.06599       -0.00062
C          0.28565        0.84146        0.00196
C         -1.44857        2.55185       -0.00093
C         -1.84982        0.47809        1.22448
C         -1.84430        0.47927       -1.22897
C          0.77127       -0.61159        0.00670
C          3.08866       -1.49321       -0.00097
C          2.58163       -2.91574        0.00104
H          0.68592        1.34344       -0.88538
H          0.68308        1.34797        0.88810
H         -0.98943        2.98192       -0.89607
H         -0.99326        2.98134        0.89623
H         -2.52655        2.74075       -0.00327
H         -1.36649        0.89741        2.11250
H         -2.91334        0.73459        1.22568
H         -1.73714       -0.60857        1.21039
H         -2.90766        0.73601       -1.23431
H         -1.35697        0.89916       -2.11448
H         -1.73241       -0.60748       -1.21545
H          0.43189       -1.15997       -0.88574
H          0.43608       -1.15317        0.90454
H          3.02782       -3.42768        0.86509
H          2.97156       -3.41100       -0.89906
H          1.49448       -3.04115        0.03412
