8
ACETIC_ACID.gamout	Energy:    -228.8198463
C          1.30753       -0.84434        1.45729
C          2.71526       -1.36867        1.57348
O          3.01592       -2.51572        1.79929
H          1.28893        0.23058        1.24862
H          0.79190       -1.39228        0.65664
H          0.77416       -1.05466        2.39453
O          3.64421       -0.40150        1.39589
H          4.51808       -0.81525        1.48525
