13
ACETIC_ANHYDRIDE.gamout	Energy:    -381.2751105
O          3.27200        1.63220        1.58974
C          2.03333        2.09696        1.15734
C          4.47111        2.08322        1.04518
C          1.01525        1.95077        2.25335
O          1.83973        2.49873        0.04888
C          5.54003        1.04038        1.21546
O          4.60020        3.17045        0.56690
H          1.27541        2.62113        3.08589
H          0.02290        2.20258        1.86670
H          1.02540        0.92348        2.64334
H          6.50483        1.45055        0.90128
H          5.58498        0.71401        2.26373
H          5.29052        0.15864        0.60680
