17
ACETOPHENONE.gamout	Energy:    -384.4019574
O         -2.32466       -1.37533        0.00000
C         -0.33116       -0.10521       -0.00000
C          1.07363       -0.04395       -0.00000
C         -1.06193        1.09871       -0.00000
C         -1.10563       -1.39453       -0.00000
C          1.73044        1.18976        0.00000
C         -0.40696        2.32751        0.00000
C          0.99320        2.37629        0.00000
C         -0.39248       -2.73670        0.00000
H          1.66986       -0.95453       -0.00000
H         -2.15018        1.03973       -0.00000
H          2.82093        1.22225        0.00000
H         -0.98609        3.25240        0.00000
H          1.50698        3.33906        0.00000
H         -0.72372       -3.29847        0.88501
H         -0.72372       -3.29848       -0.88501
H          0.70035       -2.68321       -0.00000
