9
ACETAMIDE.gamout	Energy:    -208.9670033
C          2.48404        2.52183        0.83215
C          1.95679        1.10859        0.65615
N          0.64254        0.92126        0.97888
O          2.66060        0.19633        0.25605
H          2.97395        2.83164       -0.10042
H          1.70701        3.25111        1.09861
H          3.25068        2.51312        1.62030
H          0.25203       -0.00732        0.89248
H          0.05124        1.66516        1.31599
