23
ACRIDINE.gamout	Energy:    -554.8506116
N         -0.00001        1.36417       -0.00000
C         -1.21436       -0.75892        0.00000
C          1.21439       -0.75889       -0.00000
C         -1.15744        0.68921        0.00000
C          1.15743        0.68924       -0.00000
C          0.00003       -1.45485       -0.00000
C         -2.49166       -1.40409       -0.00000
C          2.49171       -1.40403        0.00000
C         -2.38979        1.41990        0.00000
C          2.38977        1.41996       -0.00000
C         -3.64825       -0.66604       -0.00000
C          3.64828       -0.66595        0.00000
C         -3.59412        0.76200        0.00000
C          3.59412        0.76208        0.00000
H          0.00004       -2.54817       -0.00000
H         -2.52732       -2.49562        0.00000
H          2.52739       -2.49557        0.00000
H         -2.32887        2.50858       -0.00000
H          2.32883        2.50863       -0.00000
H         -4.61754       -1.16718        0.00000
H          4.61757       -1.16708        0.00000
H         -4.52509        1.33202       -0.00000
H          4.52508        1.33212       -0.00000
