8
ACROLEIN.gamout	Energy:    -191.6724379
C          0.83554        1.17012        1.59401
C          1.77317        2.22500        1.12644
C          2.82513        1.94972        0.34306
O          0.92998       -0.00738        1.32020
H         -0.00093        1.53097        2.24093
H          1.56405        3.24760        1.45385
H          3.50754        2.73103        0.00524
H          3.02047        0.92325        0.02446
