7
ACRYLONITRILE.gamout	Energy:    -170.6110759
C          1.13767        0.84568        0.15646
C          2.56286        0.96595        0.06858
C          3.20109        2.14466        0.06578
N         -0.01395        0.72087        0.22650
H          3.11598        0.02506        0.00232
H          4.28812        2.18452       -0.00284
H          2.66059        3.08974        0.13133
