10
ACRYLAMIDE.gamout	Energy:    -246.9981960
C          3.17097        1.98265        0.13256
C          1.67644        2.08184        0.19629
N          1.01965        0.88677        0.08260
O          1.08171        3.13876        0.34341
C          3.94021        3.07186        0.21885
H          3.61834        0.99117        0.01285
H          0.00939        0.88568        0.11330
H          1.49904        0.01224       -0.07048
H          3.48146        4.05553        0.33937
H          5.02828        3.00681        0.17430
