27
ACYCLOVIR.gamout	Energy:    -809.9502294
O         -2.58996        0.15603       -0.27846
O          3.80921        0.99131        1.10151
O         -5.96390       -1.04756        0.03185
N         -0.42656        0.83735       -0.75751
N          1.07297        2.23685        0.15840
N          0.78337       -1.26424       -0.61899
N          2.91251       -0.97616        0.35019
N          2.18392       -3.08326       -0.34897
C          0.66226        0.06808       -0.41978
C         -1.66075        0.36546       -1.31476
C          1.58398        0.95542        0.14331
C         -0.11205        2.13584       -0.37386
C          2.85333        0.43814        0.59058
C         -3.83079       -0.35713       -0.72392
C          1.93107       -1.75055       -0.21357
C         -4.72259       -0.53799        0.49391
H         -1.45271       -0.57461       -1.85157
H         -2.04431        1.11716       -2.02830
H         -0.81552        2.95166       -0.52771
H         -3.69499       -1.32694       -1.23663
H         -4.31234        0.33796       -1.43672
H          3.78735       -1.39511        0.64642
H         -4.23501       -1.23212        1.19972
H         -4.84365        0.43541        0.99946
H          1.47133       -3.66222       -0.76654
H          3.04478       -3.51204       -0.04965
H         -6.56692       -1.16692        0.77207
