26
ADAMANTANE.gamout	Energy:    -390.1908634
C          1.10115       -0.91665        0.57589
C         -1.14326        0.14036        1.02872
C         -0.55410       -0.61653       -1.30356
C          0.59522        1.39305       -0.30162
C         -0.04190       -0.77622        1.60240
C          0.54756       -1.53079       -0.72674
C          1.69424        0.47560        0.27507
C         -1.69475       -0.47507       -0.27431
C         -0.54656        1.53118        0.72688
C          0.04206        0.77507       -1.60279
H          1.88708       -1.56992        0.98722
H         -1.95762        0.24042        1.76370
H         -0.94751       -1.05709       -2.23332
H          1.02034        2.38635       -0.51623
H         -0.46014       -1.76674        1.84244
H          0.34441       -0.35718        2.54511
H          0.14127       -2.53570       -0.52913
H          1.35758       -1.65532       -1.46295
H          2.52733        0.38722       -0.44049
H          2.11087        0.91849        1.19364
H         -2.49796        0.15849       -0.68361
H         -2.14329       -1.46011       -0.06820
H         -0.16793        1.98980        1.65415
H         -1.32883        2.20241        0.33757
H          0.84460        0.68861       -2.35246
H         -0.72868        1.43146       -2.03780
