19
ADIPATE-1.gamout	Energy:    -534.4075997
O          4.20987       -0.89339       -0.00238
O         -4.25673        0.75810       -0.01461
O          3.47732        1.22045        0.01900
O         -3.30796       -1.29562       -0.08824
C          0.67564        0.39092        0.00267
C         -0.68474       -0.31672       -0.01841
C          1.84781       -0.59126       -0.01183
C         -1.87701        0.63947       -0.00714
C          3.21492        0.04061        0.00366
C         -3.28883       -0.04048       -0.03981
H          0.75566        1.03420        0.89398
H          0.76416        1.06735       -0.86292
H         -0.75926       -0.96664       -0.90556
H         -0.76854       -0.99917        0.84332
H          1.80551       -1.24677       -0.89874
H          1.80048       -1.28122        0.84795
H         -1.84385        1.28395        0.88880
H         -1.82471        1.32773       -0.86891
H          5.04777       -0.40562        0.00767
