20
ADIPIC_ACID.gamout	Energy:    -534.9618567
C          6.07322        5.78255       -3.67196
C          5.80112        4.90087       -2.45011
C          7.06402        4.15751       -1.97571
C          4.81142        6.47667       -4.18181
C          6.77575        3.23046       -0.81903
C          5.05321        7.38518       -5.36567
O          6.65431        3.89899        0.35285
O          6.64016        2.03251       -0.89162
O          3.90446        7.95096       -5.80310
O          6.12026        7.60958       -5.88385
H          6.82894        6.54408       -3.42516
H          6.50774        5.17855       -4.48306
H          5.41063        5.51568       -1.62400
H          5.01897        4.16175       -2.69044
H          7.82582        4.88754       -1.66283
H          7.47551        3.54653       -2.78929
H          4.34250        7.08596       -3.39112
H          4.04171        5.74428       -4.47641
H          6.44820        3.24953        1.04397
H          4.12265        8.52181       -6.55694
