18
ADIPATE-2.gamout	Energy:    -533.7724176
O          4.26666        0.80618       -0.02951
O         -4.26473       -0.80001        0.05084
O          3.41178       -1.28278        0.03398
O         -3.40895        1.28656       -0.06608
C          0.68471       -0.35176        0.01513
C         -0.68266        0.35588       -0.00360
C          1.88734        0.59916       -0.01715
C         -1.88558       -0.59467        0.02606
C          3.31997       -0.02948       -0.00280
C         -3.31782        0.03442        0.00144
H          0.76160       -0.99354        0.90951
H          0.75905       -1.04549       -0.83950
H         -0.75777        1.04902        0.85163
H         -0.75853        0.99831       -0.89741
H          1.83304        1.24476       -0.91230
H          1.84018        1.29755        0.83803
H         -1.83693       -1.23799        0.92304
H         -1.83396       -1.29521       -0.82720
