16
ADIPONITRILE.gamout	Energy:    -342.4846168
C         80.05560       -0.00705       -0.00022
C         81.51971       -0.04735        0.00036
C         79.49504        1.42847        0.00006
N         82.67748       -0.05947       -0.00002
C         77.96524        1.44288       -0.00006
C         77.40465        2.87839        0.00022
C         75.94053        2.91863       -0.00036
N         74.78276        2.93070        0.00002
H         79.69662       -0.55811       -0.88432
H         79.69609       -0.55843        0.88348
H         79.87744        1.96306        0.88344
H         79.87755        1.96346       -0.88303
H         77.58281        0.90829       -0.88343
H         77.58269        0.90789        0.88302
H         77.76356        3.42946        0.88433
H         77.76409        3.42978       -0.88349
