24
ALFA_D-FRUCTOFURANOSE.gamout	Energy:    -686.3746480
O          3.25245        0.28964        1.13820
C          4.09645       -0.09679        2.22917
C          3.17266       -0.09630        3.48348
C          1.79809        0.31067        2.93818
C          1.91660       -0.07556        1.45684
H          1.76810       -1.16549        1.35282
C          0.96462        0.66562        0.53390
H          1.71073        1.41097        3.00985
O          0.76495       -0.32691        3.65494
H          3.10863       -1.13168        3.85072
O          3.68001        0.76209        4.49021
C          5.27190        0.88196        2.29346
O          4.56277       -1.40520        2.04745
H          1.08955        0.31326       -0.50292
H          1.19789        1.74359        0.56796
O         -0.35540        0.40757        1.01353
H         -1.00762        0.81069        0.43253
H         -0.06576       -0.16422        3.18740
H          3.14549        0.66001        5.28513
H          5.27800       -1.36453        1.39457
O          6.13588        0.57128        1.20388
H          6.99712        0.97734        1.33870
H          5.78084        0.75100        3.25831
H          4.89321        1.91243        2.22429
