11
ALLYLAMINE.gamout	Energy:    -173.0257936
C          0.03055        0.08884       -0.25196
C          1.14380        0.58952        0.29146
C          2.50389       -0.04826        0.21617
N          3.49039        0.89984       -0.30238
H         -0.92910        0.59876       -0.15193
H          0.03956       -0.85204       -0.80886
H          1.10597        1.54097        0.83298
H          2.82279       -0.32437        1.23616
H          2.43240       -0.98917       -0.36377
H          4.43455        0.52574       -0.27065
H          3.28945        1.15949       -1.26494
