10
ALLYL_ALCOHOL.gamout	Energy:    -192.8731399
C          0.06824       -0.74736        1.12120
C          0.40922       -0.19574        2.48216
C          1.23831        0.82362        2.71621
O         -0.84574       -1.82411        1.29293
H          0.98732       -1.09472        0.61250
H         -0.37876        0.04674        0.49360
H         -0.08775       -0.70408        3.31413
H          1.75094        1.35349        1.90838
H          1.43601        1.16768        3.73215
H         -1.07969       -2.19394        0.43572
