15
ALLYL_ACETATE.gamout	Energy:    -345.3443772
C         -0.06513        1.24035        0.41051
C          1.04674        1.51206       -0.27566
C          2.30065        0.69538       -0.20345
O          3.39357        1.58143        0.08978
C          4.67866        1.15391        0.15678
O          5.54672        1.95704        0.38446
C          4.94325       -0.32200       -0.05591
H         -0.96371        1.84849        0.29913
H         -0.11968        0.39949        1.10680
H          1.08141        2.36635       -0.95855
H          2.21296       -0.07846        0.57457
H          2.48505        0.19862       -1.17095
H          4.63130       -0.63974       -1.06181
H          6.01680       -0.49730        0.06063
H          4.39152       -0.93492        0.67192
