19
ALPHA-METHYLSTYRENE.gamout	Energy:    -348.4979157
C          3.92568        1.80270        1.82105
C          2.65048        2.09614        2.31388
C          4.11707        0.72423        0.95742
C          1.52813        1.32128        1.95905
C          1.74613        0.23455        1.08414
C          0.17415        1.65022        2.49509
C          3.01524       -0.05918        0.59212
C         -0.92800        0.94119        2.18730
C          0.05602        2.83745        3.42426
H          4.77252        2.42491        2.11717
H          2.53746        2.94518        2.98595
H          5.11142        0.49356        0.57153
H          0.91018       -0.39436        0.78125
H          3.14763       -0.90681       -0.08287
H         -1.89907        1.21486        2.60024
H         -0.91534        0.07520        1.52626
H          0.67856        2.70921        4.32418
H          0.38527        3.76733        2.93366
H         -0.98251        2.97413        3.74752
