24
ALPHA_DGLUCOSE.gamout	Energy:    -686.3676113
O          4.21459        2.70537       -0.20831
O          3.15156        1.68662       -2.49360
O          2.04548       -0.87245       -2.54243
O          0.27927        1.17413       -2.05185
O          2.03919        2.25084        0.22480
O         -0.38917        0.04625        1.78638
C          3.29421        1.66523       -0.05860
C          3.29133        0.85853       -1.36451
C          2.14426       -0.16409       -1.33311
C          0.79039        0.46097       -0.93280
C          0.92193        1.36983        0.30629
C          0.91234        0.59504        1.63388
H          4.08170        3.34885        0.49895
H          3.62715        2.51123       -2.32950
H          1.75325       -0.24228       -3.21661
H         -0.68242        1.17859       -2.02026
H         -0.46113       -0.41585        2.62769
H          3.59396        1.00162        0.77795
H          4.24627        0.30217       -1.41502
H          2.40113       -0.91054       -0.56492
H          0.11050       -0.36462       -0.67341
H          0.04553        2.03186        0.32539
H          1.14684        1.30720        2.44277
H          1.67440       -0.20400        1.64777
