6
AMMONIUM_CHLORIDE.gamout	Energy:    -517.0921966
N         -0.42789        2.53228       -0.43641
Cl        -2.77494        1.17109       -0.10607
H          0.45161        3.04403       -0.56314
H         -0.38834        1.70371        0.18052
H         -0.85696        2.14275       -1.29255
H         -1.21042        3.06942       -0.02761
