23
ANETHOLE.gamout	Energy:    -462.8891349
C          1.85042        2.75977        1.84921
C          2.37661        1.86289        2.70075
C          3.56548        2.01265        3.55573
C          0.62827        2.52789        1.01195
C          4.38357        3.15689        3.56363
C          3.92826        0.96168        4.42491
C          5.50420        3.25616        4.38915
C          5.04044        1.04269        5.25502
C          5.84149        2.19444        5.24414
O          6.91146        2.19925        6.08564
C          7.77528        3.31818        6.09940
H          2.32641        3.73952        1.73526
H          1.87310        0.89319        2.78841
H         -0.15886        3.26604        1.24131
H          0.85313        2.63623       -0.06260
H          0.21203        1.52383        1.17432
H          4.14617        3.99852        2.91202
H          3.31648        0.05705        4.44557
H          6.10609        4.16286        4.35824
H          5.30827        0.22278        5.92231
H          8.23167        3.48533        5.10960
H          7.24500        4.23189        6.41547
H          8.56270        3.08998        6.82531
