18
ANISATE-1.gamout	Energy:    -534.1481055
O          3.07620        0.41429       -0.00926
O         -3.11416       -1.27552        0.00464
O         -3.27641        0.98407       -0.01119
C         -1.10885        0.00521       -0.00044
C          1.71021        0.21270       -0.00424
C         -0.47233        1.25694        0.00159
C         -0.30025       -1.13379       -0.00177
C          0.91694        1.36717       -0.00230
C          1.09942       -1.04732       -0.00141
C         -2.65540       -0.10686       -0.00248
C          3.91275       -0.71342        0.00057
H         -1.11013        2.14257        0.00670
H         -0.79838       -2.10446       -0.00356
H          1.41089        2.34075       -0.00451
H          1.69142       -1.96217        0.00239
H          3.75301       -1.34491       -0.89161
H          3.74640       -1.33051        0.90117
H          4.94605       -0.34334        0.00039
