24
ANTHRAQUINONE.gamout	Energy:    -687.9148257
C         -0.66940       -1.26811        0.10521
C         -2.09013       -0.82138       -0.01726
C          0.39076       -0.21458        0.09468
O         -0.38357       -2.45163        0.20874
C         -1.35898        1.59996       -0.14769
C          0.06174        1.15320       -0.02543
O         -1.64478        2.78345       -0.25156
C         -2.41909        0.54642       -0.13736
C         -3.11097       -1.78290       -0.01133
C          1.08263        2.11470       -0.03153
C         -3.76346        0.92968       -0.24931
C          1.73512       -0.59789        0.20645
C         -4.44393       -1.39182       -0.12312
C         -4.77066       -0.03366       -0.24222
C          2.74232        0.36544        0.19912
C          2.41561        1.72361        0.08008
H         -2.83270       -2.83242        0.08278
H          0.80440        3.16423       -0.12565
H         -3.99297        1.99117       -0.34100
H          1.96461       -1.65937        0.29814
H         -5.23377       -2.14491       -0.11768
H         -5.81497        0.27079       -0.32986
H          3.78665        0.06100        0.28666
H          3.20546        2.47669        0.07445
