30
APIGENIN.gamout	Energy:    -952.6068559
O         -0.05739        0.67089       -0.01195
O         -4.14041       -1.83728        0.05501
O         -1.83169       -3.00097        0.08166
O         -4.17937        2.93647       -0.05697
O          6.21253        0.79754       -0.03371
C         -2.06372       -0.64685        0.02411
C         -1.42114        0.60486       -0.00742
C          0.70941       -0.44817        0.01975
C          2.14750       -0.14099        0.00978
C         -1.28590       -1.87554        0.05468
C          0.14975       -1.69287        0.05586
C         -3.48819       -0.67297        0.02653
C         -2.12065        1.80948       -0.03475
C         -3.51933        1.74970       -0.03043
C         -4.20269        0.52558       -0.00007
C          3.10823       -1.16663        0.03300
C          2.59886        1.19097       -0.02921
C          4.46614       -0.87972        0.01913
C          3.95529        1.48626       -0.04551
C          4.89803        0.45218       -0.01953
H          0.77045       -2.58700        0.08223
H         -1.60915        2.76910       -0.05855
H         -5.29095        0.48102        0.00349
H          2.79807       -2.20901        0.06296
H          1.87709        2.00376       -0.04764
H          5.19086       -1.69423        0.03905
H          4.31039        2.51668       -0.07821
H         -3.45456       -2.56289        0.07239
H         -5.13392        2.79952       -0.05210
H          6.77673        0.01597       -0.00765
