16
ASPARTIC_ACID.gamout	Energy:    -511.7186340
C          1.76259        1.62496       -0.04893
C          3.05040        0.82294        0.21677
C          4.25234        1.76693        0.20239
N          3.34179       -0.23794       -0.73742
C          0.51064        0.76721        0.05128
O          4.43479        2.61824       -0.63652
O          5.10610        1.53841        1.21303
O          0.49585       -0.37995        0.41273
O         -0.64799        1.38243       -0.28683
H          1.81940        2.09640       -1.04366
H          1.66603        2.45133        0.67773
H          2.66305       -0.99010       -0.66342
H          3.36953        0.10153       -1.69578
H          5.86458        2.13649        1.11184
H         -0.50186        2.29822       -0.56062
H          2.98758        0.36170        1.21027
