21
ASPIRIN.gamout	Energy:    -647.8980157
C          0.81950        1.19243        1.25030
C          1.58047        0.04171        0.99576
C         -0.55968        1.05471        1.57218
O          1.29155        2.47337        1.21763
C          0.99683       -1.22506        1.05618
C         -1.11476       -0.23659        1.62462
C         -1.44204        2.23095        1.85703
C         -0.35319       -1.37374        1.37073
O         -1.13542        3.39692        1.85604
O         -2.71815        1.84390        2.13906
C          2.51063        3.05765        0.96796
O          2.55294        4.25437        1.03138
C          3.72251        2.22105        0.63398
H          2.63106        0.11168        0.74759
H          1.61563       -2.10068        0.85302
H         -2.16903       -0.33228        1.87200
H         -0.80929       -2.36289        1.41804
H         -3.21696        2.65691        2.30895
H          3.96869        1.52958        1.45182
H          3.56505        1.63827       -0.28404
H          4.55842        2.91031        0.48278
