24
AZOBENZENE.gamout	Energy:    -572.0231922
C          6.12645        1.70329       -0.42213
C          6.70883        0.42684       -0.36385
C          4.72412        1.83308       -0.43781
N          7.03175        2.78966       -0.46143
C          5.90298       -0.71234       -0.32150
C          3.92751        0.69227       -0.39540
C          4.51137       -0.58244       -0.33718
N          6.51884        3.93032       -0.51303
C          7.42414        5.01669       -0.55235
C          9.03928        7.30240       -0.63735
C          7.64767        7.43232       -0.65292
C          9.62311        6.02768       -0.57920
C          6.84180        6.29315       -0.61056
C          8.82647        4.88689       -0.53670
H          7.79723        0.35516       -0.35286
H          4.28549        2.82896       -0.48300
H          6.36088       -1.70198       -0.27636
H          2.84023        0.79049       -0.40747
H          3.87842       -1.47111       -0.30420
H          9.67223        8.19106       -0.67041
H          7.18975        8.42196       -0.69798
H         10.71038        5.92941       -0.56721
H          5.75340        6.36486       -0.62153
H          9.26508        3.89100       -0.49159
