26
B-PINENE.gamout	Energy:    -390.1217000
C         -0.11227        2.47561       -0.54704
C          1.27691        2.59230        0.08727
C          1.97603        1.19034        0.20525
C          1.13084        1.03297        1.52011
C          1.11787        2.58254        1.63254
H          1.98629        2.98794        2.16301
H          0.20857        3.04488        2.04309
H          1.86147        3.40325       -0.37227
C          3.47719        1.31978        0.49772
H          3.69932        2.03652        1.29809
H          4.01594        1.64972       -0.40369
H          3.89607        0.34676        0.79609
C          1.78464        0.17251       -0.92101
H          0.73622        0.01523       -1.19778
H          2.20106       -0.80402       -0.62947
H          2.32134        0.49701       -1.82609
C         -0.29399        0.55514        1.21874
H          1.58490        0.45404        2.33799
C         -0.95295        1.37202        0.10247
H         -0.90053        0.63560        2.13515
H         -0.29569       -0.51242        0.94770
H         -0.02844        2.29106       -1.62963
H         -0.63509        3.44004       -0.44382
C         -2.20695        1.12574       -0.29535
H         -2.80839        0.33686        0.16242
H         -2.67871        1.70277       -1.09407
