17
BA+1.gamout	Energy:    -213.8749926
C          2.10536        1.64460        1.49611
C          3.52080        1.31930        1.99677
C          4.58614        1.90776        1.08560
C          1.01707        1.06031        2.39692
N          5.97826        1.54991        1.58760
H          1.98606        2.73826        1.43133
H          1.98759        1.25700        0.47138
H          3.64648        1.71312        3.01984
H          3.64497        0.22406        2.05321
H          4.52091        1.51837        0.06160
H          4.54716        3.00377        1.04790
H          1.08021        1.46608        3.41725
H          0.02337        1.30348        2.00111
H          1.09369       -0.03529        2.45899
H          6.71915        1.93566        0.98994
H          6.12790        1.90693        2.53958
H          6.10547        0.53088        1.62469
