26
BACLOFEN.gamout	Energy:   -1052.7814749
Cl        -4.67740        0.33828        0.27178
O          2.26427        2.80051        0.06194
O          1.90487        1.57975       -1.78566
N          3.00973       -2.57683        0.44545
C          1.30155       -0.75030       -0.11611
C         -0.18753       -0.45982       -0.01558
C          2.15895        0.44272        0.33892
C          1.67301       -2.04693        0.65767
C         -0.99510       -0.44702       -1.16255
C         -0.80290       -0.21518        1.22380
C          2.07783        1.63269       -0.59173
C         -2.36852       -0.20406       -1.08523
C         -2.17433        0.02573        1.32197
C         -2.94978        0.02976        0.16109
H          1.53217       -0.92958       -1.17694
H          1.90868        0.76250        1.35949
H          3.22329        0.15080        0.35439
H          0.94719       -2.82485        0.37910
H          1.54401       -1.88348        1.73868
H         -0.54081       -0.61936       -2.13929
H         -0.21087       -0.21767        2.14063
H          3.74899       -1.99601        0.82793
H          3.21205       -2.76032       -0.53320
H         -2.98128       -0.19125       -1.98632
H         -2.63801        0.20998        2.29073
H          2.24136        3.51643       -0.59328
