25
BARBITAL.gamout	Energy:    -646.5380051
O         -0.49141       -2.98787       -0.18811
O          0.62159        1.65624       -0.29237
O         -3.30860        0.17990        1.42449
N         -1.86536       -1.38481        0.60385
N         -1.32123        0.88469        0.55219
C          0.34042       -0.73526       -0.37783
C          1.67048       -1.03777        0.37578
C          0.59010       -0.83079       -1.91293
C         -0.68522       -1.80685        0.00966
C         -0.08390        0.70035       -0.04771
C          1.58333       -0.98156        1.90143
C         -0.63296       -0.55842       -2.78950
C         -2.24880       -0.08547        0.90145
H          2.41264       -0.31354        0.01405
H          1.99641       -2.03567        0.05345
H          0.97704       -1.83981       -2.10869
H          1.39049       -0.11704       -2.14974
H          1.28807        0.01562        2.25901
H          0.86861       -1.71703        2.29900
H          2.56357       -1.20898        2.34184
H         -1.44314       -1.27659       -2.59601
H         -1.02811        0.45680       -2.63838
H         -0.36348       -0.64887       -3.85037
H         -2.53406       -2.10699        0.85386
H         -1.58781        1.84125        0.76465
