14
BENZALDEHYDE.gamout	Energy:    -345.1370695
O          5.48894        0.41617        0.35683
C          5.11533        1.56691        0.43634
C          3.70022        2.00413        0.36644
C          2.67029        1.06127        0.19641
C          3.38504        3.36872        0.47049
C          1.34502        1.48320        0.13193
C          2.05537        3.79026        0.40559
C          1.03657        2.84739        0.23638
H          5.85416        2.39508        0.57294
H          2.93524        0.00590        0.11753
H          4.18800        4.09811        0.60246
H          0.54478        0.75273       -0.00006
H          1.81203        4.85096        0.48661
H         -0.00365        3.17446        0.18527
