22
BENZYL_ETHYL_ETHER.gamout	Energy:    -424.8448885
C          6.35252        1.87593       -0.14923
C          6.89897        0.62606       -0.45641
C          4.96856        2.03363       -0.03586
C          4.11084        0.94203       -0.23512
C          2.61560        1.08565       -0.06795
C          4.66537       -0.30646       -0.55151
C          6.04966       -0.46622       -0.65693
O          2.20149        2.39626       -0.37852
C          0.82356        2.62860       -0.16077
C          0.49722        4.06424       -0.52540
H          7.00816        2.73579        0.00302
H          7.98008        0.50485       -0.54445
H          4.54139        3.00939        0.19438
H          2.09319        0.35176       -0.71231
H          2.33389        0.84632        0.97903
H          4.00819       -1.16277       -0.72091
H          6.46501       -1.44481       -0.90533
H          0.22394        1.92582       -0.77215
H          0.57461        2.42987        0.90048
H         -0.57117        4.26338       -0.36047
H          1.08196        4.76115        0.09129
H          0.73041        4.25875       -1.58148
