14
BENZOATE-1.gamout	Energy:    -419.7615113
O          2.40017       -1.13230       -0.00080
O          2.40037        1.13212       -0.00085
C          0.30605       -0.00000        0.00185
C         -0.41375        1.20295        0.00109
C         -0.41375       -1.20295        0.00101
C         -1.81174        1.20741       -0.00011
C         -1.81162       -1.20738        0.00030
C         -2.51765       -0.00006        0.00081
C          1.85875       -0.00005        0.00016
H          0.16115        2.12958        0.00061
H          0.16106       -2.12955        0.00003
H         -2.35630        2.15510       -0.00405
H         -2.35611       -2.15517       -0.00293
H         -3.61062       -0.00001        0.00239
