15
BENZOTRIFLUORIDE.gamout	Energy:    -568.6302639
F          6.65634        3.92898       -1.76145
C          7.23845        3.00592       -0.96892
F          8.37809        2.61709       -1.57644
F          7.60584        3.64772        0.16737
C          6.32036        1.84285       -0.68190
C          6.85876        0.57236       -0.44352
C          4.93540        2.04526       -0.62792
C          6.00789       -0.49532       -0.14996
C          4.62481       -0.29749       -0.09580
C          4.09071        0.97248       -0.33560
H          7.93646        0.41835       -0.49495
H          4.52180        3.03446       -0.82348
H          6.42722       -1.48599        0.03285
H          3.96224       -1.13441        0.13094
H          3.01144        1.12885       -0.29804
