21
BENZYL_ACETATE.gamout	Energy:    -498.8152374
O          0.82799        3.61682        1.84934
C          1.78126        4.45453        1.15737
C          3.17147        3.97283        1.47682
C         -0.47544        3.91283        1.68011
C          3.64111        3.97707        2.80072
C          4.02407        3.52777        0.45806
C         -1.35810        2.95892        2.44460
O         -0.86293        4.83013        0.99403
C          4.93169        3.53759        3.09721
C          5.32022        3.09183        0.75252
C          5.77638        3.09387        2.07267
H          1.62353        5.49425        1.48097
H          1.57688        4.40878        0.07967
H          2.98679        4.32348        3.60295
H          3.67090        3.52037       -0.57523
H         -2.40764        3.22244        2.28454
H         -1.17076        1.92869        2.10957
H         -1.11569        2.99906        3.51605
H          5.28365        3.54374        4.13071
H          5.97239        2.74672       -0.05198
H          6.78641        2.75175        2.30507
