15
BENZYL_CHLORIDE.gamout	Energy:    -730.6136605
C          1.36898       -0.00243       -0.93615
C         -0.05647       -0.00116       -0.47566
C         -0.73478        1.20854       -0.25747
C         -2.06302        1.21038        0.17292
C         -2.73091        0.00115        0.39193
C         -2.06465       -1.20920        0.17446
C         -0.73664       -1.20968       -0.25677
Cl         2.55274        0.00101        0.47246
H          1.61602       -0.89816       -1.51631
H          1.61619        0.89034       -1.52081
H         -0.21536        2.15463       -0.42405
H         -2.57932        2.15787        0.33803
H         -3.76900        0.00208        0.72874
H         -2.58207       -2.15584        0.34100
H         -0.21836       -2.15665       -0.42188
