14
BENZOYL_BROMIDE.gamout	Energy:   -2918.2875415
C          6.29681        1.87221       -0.59744
C          6.83076        0.59011       -0.35187
C          4.91746        2.05990       -0.63126
C          4.05761        0.97518       -0.42140
C          4.58212       -0.29779       -0.17722
C          5.96290       -0.49376       -0.14157
C          8.31155        0.48617       -0.33615
Br         9.05872       -1.34779        0.01581
O          9.08215        1.37253       -0.51084
H          6.97919        2.70660       -0.75932
H          4.51049        3.05429       -0.82172
H          2.97656        1.12281       -0.44822
H          3.91334       -1.14390       -0.01341
H          6.37158       -1.48420        0.04853
