15
BENZOTHIOPHENE.gamout	Energy:    -706.0857287
C         -3.97884       -0.52520        0.11220
C         -4.62149       -0.36328       -1.14427
C         -2.87701        0.39186        0.27520
C         -4.46621       -1.50727        0.99994
S         -3.85440        0.90767       -2.08563
C         -5.71892       -1.15061       -1.51741
C         -2.69910        1.20324       -0.80340
C         -5.55465       -2.28918        0.63134
C         -6.17804       -2.11201       -0.62060
H         -2.25261        0.43146        1.16771
H         -3.98618       -1.64766        1.97032
H         -6.20339       -1.01618       -2.48548
H         -1.94613        1.97709       -0.93654
H         -5.93219       -3.04895        1.31765
H         -7.03169       -2.73525       -0.89298
