16
BENZENESULFONIC_ACID.gamout	Energy:    -855.3269238
S          1.72575       -0.18000       -0.04203
O          2.11982        0.33626        1.48097
O          2.16107       -1.58050       -0.12880
O          2.22551        0.85353       -0.94266
C         -0.07394       -0.10325       -0.01572
C         -0.69679        1.13697       -0.18987
C         -0.81122       -1.27780        0.15280
C         -2.09171        1.19802       -0.17590
C         -2.20801       -1.20215        0.15806
C         -2.84353        0.03158       -0.00056
H         -0.09758        2.03228       -0.34793
H         -0.29625       -2.23075        0.26318
H         -2.59537        2.15716       -0.30818
H         -2.80302       -2.10972        0.27615
H         -3.93378        0.08481        0.00735
H          2.40882       -0.43825        1.99117
