28
BENZYL_BENZOATE.gamout	Energy:    -690.3076044
C          8.17723        3.08481       -1.44382
C          7.13212        2.97233       -2.37565
C          8.24963        2.18729       -0.36666
C          9.23493        4.13294       -1.55483
C          6.17095        1.97108       -2.22597
C          7.28668        1.18922       -0.22082
C          6.24606        1.07952       -1.15034
C         10.01095        6.01535       -2.78251
O          9.03428        4.96906       -2.59089
C          9.51193        6.94396       -3.85768
O         10.17829        4.23218       -0.79896
C          8.57208        8.69938       -5.84417
C          9.73584        7.95687       -6.05751
C          7.87637        8.56681       -4.63677
C         10.20183        7.08329       -5.06866
C          8.34520        7.69857       -3.65046
H          7.07944        3.66973       -3.20993
H          9.06957        2.28884        0.34398
H          5.35972        1.88524       -2.95083
H          7.34606        0.49417        0.61839
H          5.49323        0.29742       -1.03603
H         10.15197        6.53589       -1.82451
H         10.97127        5.55685       -3.05445
H          8.20690        9.38093       -6.61451
H         10.28396        8.05584       -6.99630
H          6.96705        9.14552       -4.46276
H         11.11108        6.50391       -5.24206
H          7.80165        7.60096       -2.70863
