36
BENZYLTRIETHYLAMMONIUM+1.gamout	Energy:    -562.3981127
N          1.45844       -0.11220        0.03911
C          0.32570       -0.05929       -1.01092
C          1.28802       -1.31172        0.96007
C          1.39044        1.15761        0.87220
C          2.79588       -0.22434       -0.68412
C         -1.09317        0.04300       -0.50285
C          1.38984       -2.68897        0.31542
C          2.51263        1.38006        1.87461
C          3.20970        0.97052       -1.53114
C         -1.87939       -1.10657       -0.32015
C         -1.69968        1.30040       -0.34069
C         -3.21931       -1.00401        0.05601
C         -3.03537        1.40647        0.04522
C         -3.79433        0.25259        0.24889
H          0.45589       -0.95083       -1.63068
H          0.55574        0.81076       -1.62888
H          2.05692       -1.21566        1.73352
H          0.30908       -1.17543        1.43079
H          1.35581        1.98209        0.15454
H          0.42225        1.12580        1.37955
H          3.54854       -0.42818        0.08681
H          2.72018       -1.11495       -1.31387
H          1.10858       -3.42014        1.08343
H          0.70566       -2.83647       -0.52861
H          2.40773       -2.93421       -0.00888
H          2.31249        2.33739        2.37220
H          2.55118        0.61652        2.65953
H          3.50035        1.45887        1.40588
H          4.15734        0.70679       -2.01832
H          2.49377        1.19817       -2.32998
H          3.39554        1.87897       -0.94479
H         -1.45935       -2.09496       -0.50179
H         -1.13421        2.21225       -0.53517
H         -3.82706       -1.90107        0.18152
H         -3.49454        2.38794        0.16887
H         -4.84084        0.33540        0.54006
