15
BENZOIC_ACID.gamout	Energy:    -420.3124741
C          6.28721        1.86026       -0.72209
C          6.83879        0.64020       -0.30156
C          4.90484        2.01578       -0.79625
C          5.98975       -0.42244        0.04381
C          8.32275        0.52539       -0.23924
C          4.06204        0.95498       -0.45132
C          4.60588       -0.26154       -0.03219
O          8.75552       -0.68920        0.17758
O          9.09594        1.41239       -0.52621
H          6.95945        2.67522       -0.98664
H          4.48303        2.96609       -1.12381
H          6.41496       -1.36924        0.37035
H          2.97962        1.07698       -0.50939
H          3.94932       -1.08900        0.23701
H          9.72571       -0.66190        0.18369
