17
BENZYLAMINE.gamout	Energy:    -326.4849256
N          7.52955        4.01066       -0.14988
C          7.24009        3.02895       -1.19964
C          6.29975        1.90288       -0.80380
C          6.79777        0.71289       -0.24933
C          4.90923        2.04348       -0.94095
C          5.93275       -0.30137        0.17094
C          4.54965       -0.14437        0.03697
C          4.04035        1.03202       -0.52178
H          6.67788        4.46519        0.17237
H          7.94905        3.56621        0.66385
H          8.19954        2.60613       -1.53437
H          6.82338        3.57499       -2.05971
H          7.87785        0.57754       -0.15012
H          4.50180        2.95476       -1.38634
H          6.33948       -1.22057        0.59757
H          3.87291       -0.93695        0.36111
H          2.96207        1.15882       -0.63868
