23
BENZOCAINE.gamout	Energy:    -554.1193507
O         -2.24007       -0.34507       -0.04404
O         -1.85198        1.87281       -0.03756
N          4.11646       -0.53108        0.00059
C          0.00951        0.37008       -0.02723
C          0.97176        1.39563       -0.01858
C          0.45389       -0.96435       -0.02646
C          2.77520       -0.23559       -0.00854
C          2.32899        1.10532       -0.00941
C          1.80930       -1.26647       -0.01733
C         -1.42685        0.73470       -0.03660
C         -3.65552       -0.09811       -0.05266
C         -4.36351       -1.43859       -0.05992
H          0.62873        2.43056       -0.01916
H         -0.27781       -1.77067       -0.03307
H          3.06266        1.91423       -0.00271
H          2.13664       -2.30834       -0.01678
H         -3.91834        0.49995        0.83195
H         -3.90710        0.50359       -0.93811
H         -5.45150       -1.28354       -0.06649
H         -4.09055       -2.02063       -0.95132
H         -4.10179       -2.02433        0.83242
H          4.44070       -1.48470        0.00138
H          4.81411        0.19557        0.00696
