15
BENZOTRICHLORIDE.gamout	Energy:   -1649.4150361
C          6.32170        1.83758       -0.75650
C          6.84042        0.59330       -0.40725
C          4.93887        2.05591       -0.73911
C          4.08414        1.01742       -0.37122
C          4.59942       -0.23495       -0.01969
C          5.98175       -0.45596       -0.03232
C          6.59376       -1.80176        0.31660
Cl         7.85660       -1.61078        1.60616
Cl         7.40199       -2.51144       -1.14839
Cl         5.39833       -3.00730        0.91298
H          7.00151        2.64183       -1.04328
H          7.91803        0.43190       -0.42436
H          4.53399        3.03195       -1.01169
H          3.00423        1.17372       -0.35382
H          3.92037       -1.03522        0.26431
