27
BENZYL_NICOTINATE.gamout	Energy:    -706.3294438
O         -0.02604        0.54348       -0.07397
O          1.27201        2.36699       -0.31233
N          3.19041       -1.97490        0.36870
C         -2.42798        0.49712       -0.12792
C         -1.20472        1.37003       -0.21816
C         -3.32313        0.42329       -1.20283
C         -2.70340       -0.23654        1.03775
C          2.31519        0.24134        0.02038
C         -4.47451       -0.36655       -1.11931
C         -3.84814       -1.03100        1.12001
C          1.15886        1.17229       -0.13910
C         -4.73865       -1.09619        0.04196
C          3.61556        0.76121       -0.03535
C          2.15986       -1.14045        0.22427
C          4.69155       -0.10943        0.11349
C          4.42555       -1.46914        0.31443
H         -1.18122        2.13432        0.57227
H         -1.15357        1.88716       -1.18493
H         -3.11851        0.98906       -2.11406
H         -2.01424       -0.18657        1.88286
H         -5.16267       -0.41386       -1.96526
H         -4.05108       -1.59804        2.03055
H         -5.63550       -1.71472        0.10838
H          3.75543        1.83105       -0.19419
H          1.16016       -1.57626        0.26854
H          5.71994        0.25232        0.07554
H          5.24823       -2.18015        0.43591
