13
BENZONITRILE.gamout	Energy:    -324.0720733
N         -1.82551       -3.16212       -0.00002
C         -0.52667       -0.91193        0.00003
C          0.88118       -0.91088        0.00000
C         -1.22958        0.30767        0.00000
C          1.57300        0.30015       -0.00000
C         -0.52658        1.51224       -0.00000
C          0.87255        1.51109       -0.00001
C         -1.24546       -2.15722        0.00000
H          1.42050       -1.85860       -0.00000
H         -2.32004        0.30094       -0.00000
H          2.66422        0.29821       -0.00001
H         -1.07363        2.45636       -0.00001
H          1.41799        2.45622       -0.00002
