24
BETA_D-FRUCTOFURANOSE.gamout	Energy:    -686.3741922
O          3.07102       -1.02253        0.32829
C          4.01664       -1.69154        1.13573
C          3.34801       -1.83907        2.53922
C          1.84874       -1.75522        2.23199
C          1.80205       -0.86809        0.97267
H          1.02614       -1.23413        0.28297
C          1.53591        0.61032        1.24950
H          1.31165       -1.29555        3.07305
O          1.38088       -3.07608        1.98066
H          3.59568       -2.80885        2.99863
O          3.71607       -0.77214        3.38332
O          5.17484       -0.89105        1.22816
C          4.35859       -3.02430        0.45987
H          5.94605       -1.47740        1.19253
H          4.48552       -2.82624       -0.61676
H          3.52456       -3.72591        0.60643
O          5.56703       -3.50317        1.04415
H          1.73285        1.17641        0.32377
H          2.21577        0.97306        2.03662
O          0.17306        0.71637        1.64643
H         -0.02685        1.62233        1.90151
H          5.79458       -4.37085        0.69600
H          0.42593       -3.05899        1.85363
H          4.55299       -0.41868        3.04017
