20
BETAINE+1.gamout	Energy:    -402.2212647
O          2.50587       -0.51791        0.51884
O          1.53115        0.53279       -1.22135
N         -1.10263       -0.01219       -0.09281
C          0.18380       -0.44585        0.55928
C         -1.26607       -0.64506       -1.45099
C         -2.23287       -0.46931        0.78869
C         -1.16991        1.48761       -0.21983
C          1.46873       -0.06816       -0.18067
H          0.22046       -0.01384        1.56717
H          0.15654       -1.53705        0.67252
H         -1.20040       -1.73202       -1.33873
H         -2.25215       -0.36956       -1.83502
H         -0.48032       -0.27579       -2.11238
H         -2.13623        0.00285        1.77124
H         -3.17644       -0.17013        0.32310
H         -2.19419       -1.55859        0.88657
H         -1.04103        1.92965        0.77339
H         -0.38338        1.82292       -0.89789
H         -2.15549        1.74932       -0.61559
H          3.34076       -0.29426        0.06997
