22
BHEMA+1.gamout	Energy:    -403.3939069
C         -0.10307        1.47031        0.16024
C         -1.37896        2.13093       -0.36868
O         -2.29120        1.07438       -0.52060
H         -1.16825        2.62999       -1.33744
H         -1.75386        2.89584        0.33163
H         -3.18767        1.39941       -0.66460
N          1.13640        2.28754       -0.09673
H          0.02503        0.51461       -0.36020
H         -0.15490        1.27746        1.23860
C          2.37753        1.49681        0.22655
C          3.66591        2.18297       -0.23312
H          2.29519        0.53856       -0.29844
H          2.37709        1.30532        1.30636
O          4.61326        1.14943       -0.29729
H          3.97274        2.97380        0.47137
H          3.50715        2.65402       -1.22516
H          5.50915        1.49512       -0.38165
C          1.10442        3.61418        0.59916
H          0.21231        4.16473        0.28979
H          1.99498        4.18519        0.32562
H          1.08435        3.43920        1.68055
H          1.16022        2.47239       -1.10668
