22
BIPHENYL.gamout	Energy:    -462.6934258
C          2.45770        0.42054        3.86538
C          3.70578        0.58749        3.23054
C          1.32630        0.31925        3.02930
C          2.33976        0.35387        5.35597
C          3.81806        0.64992        1.84138
C          1.43479        0.38127        1.63986
C          1.09154        0.18911        5.99113
C          3.47155        0.45280        6.19180
C          2.68259        0.54735        1.03367
C          0.97952        0.12652        7.38031
C          3.36334        0.39073        7.58126
C          2.11539        0.22682        8.18773
H          4.61435        0.67136        3.82414
H          0.33598        0.18928        3.46190
H          4.80238        0.77989        1.38775
H          0.53535        0.29880        1.02678
H          0.18263        0.10700        5.39783
H          4.46200        0.58094        5.75896
H          2.76889        0.59599       -0.05298
H         -0.00493       -0.00167        7.83415
H          4.26310        0.47124        8.19411
H          2.02933        0.17797        9.27439
