33
BISPHENOL_A.gamout	Energy:    -730.7503710
C          6.97444        3.81017       -2.12337
C          7.23538        3.06824       -0.79111
C          6.96584        4.06885        0.35735
C          6.28680        1.86810       -0.59568
C          8.69750        2.57846       -0.80685
C          6.49722        0.98349        0.47942
C          5.17560        1.62364       -1.41142
C          9.07329        1.53840       -1.67809
C          9.70708        3.14906       -0.02229
C          4.30781        0.55077       -1.17096
C          4.53741       -0.30809       -0.09388
C          5.64462       -0.08567        0.73587
O          3.72989       -1.37184        0.19569
C         10.38737        1.09016       -1.77070
C         11.38046        1.67862       -0.97621
C         11.03444        2.70920       -0.09953
O         12.65621        1.20362       -1.09885
H          7.08873        3.14797       -2.99151
H          7.69565        4.63036       -2.23284
H          5.96537        4.24594       -2.14971
H          7.18971        3.63385        1.34014
H          7.56092        4.98603        0.24039
H          5.90644        4.35576        0.35358
H          7.36185        1.12711        1.12958
H          4.95990        2.26968       -2.26120
H          8.31196        1.05620       -2.29316
H          9.47765        3.95530        0.67267
H          3.45121        0.38788       -1.83057
H          5.82405       -0.76277        1.57181
H          3.00615       -1.43038       -0.43825
H         10.66213        0.28132       -2.44849
H         11.79821        3.17387        0.52961
H         13.25280        1.67430       -0.50588
