31
BMMOR+1.gamout	Energy:    -484.0779968
O         -3.69566       -0.05549       -0.64734
C         -3.58911       -1.04933       -1.64381
C         -2.75099        0.98761       -0.81739
C         -2.29616       -1.85312       -1.44608
H         -3.64189       -0.60668       -2.65431
H         -4.44915       -1.72125       -1.53965
C         -1.43531        0.46798       -1.41965
H         -2.59677        1.43813        0.17009
H         -3.14686        1.77111       -1.48621
N         -1.13194       -0.95910       -1.00757
H         -2.00601       -2.35815       -2.37410
H         -2.42439       -2.61075       -0.66963
H         -0.58743        1.09177       -1.11743
H         -1.47636        0.46286       -2.51396
C          0.12086       -1.38554       -1.70750
H          0.31098       -2.44208       -1.50469
H          0.95590       -0.77752       -1.34725
H         -0.00834       -1.23571       -2.78365
C         -0.94199       -1.01368        0.51390
C         -0.42664       -2.33948        1.10273
H         -1.92305       -0.76064        0.92286
H         -0.25019       -0.19600        0.74826
C          1.08407       -2.41699        1.37411
H         -0.74272       -3.19590        0.48771
H         -0.95387       -2.47603        2.05835
C          1.48992       -3.72522        2.05568
H          1.37308       -1.56638        2.01201
H          1.65320       -2.29893        0.43950
H          1.21967       -4.60128        1.44662
H          0.99703       -3.83098        3.03255
H          2.57409       -3.75852        2.22245
