33
BMPIP+1.gamout	Energy:    -448.2336074
C         -3.47608        0.94440        1.17554
C         -2.87836        1.40346       -0.15451
C         -1.40439        1.76674       -0.01723
H         -3.39285        2.29890       -0.52907
H         -3.01696        0.63418       -0.92889
C         -2.64452       -0.19277        1.77245
H         -4.51511        0.62183        1.03483
H         -3.50327        1.79076        1.88077
C         -1.17266        0.18458        1.87849
H         -2.77106       -1.11597        1.18819
H         -2.98593       -0.43521        2.78840
N         -0.55841        0.64677        0.56253
H         -0.55707       -0.64951        2.23246
H         -1.04568        1.02229        2.57489
H         -1.28015        2.61582        0.66650
H         -0.96688        2.03597       -0.98128
C         -0.46689       -0.50234       -0.39050
H         -1.44902       -0.96007       -0.51954
H          0.22725       -1.24097        0.02084
H         -0.10532       -0.14397       -1.35610
C          0.84062        1.16482        0.87548
C          1.64671        1.70416       -0.30056
H          0.70226        1.95059        1.62708
H          1.36662        0.33062        1.35578
C          3.02528        2.19560        0.16826
H          1.12050        2.54365       -0.77665
H          1.79461        0.93145       -1.06887
C          3.84699        2.78291       -0.97759
H          3.57658        1.36018        0.62757
H          2.89848        2.95522        0.95590
H          4.01961        2.04206       -1.77223
H          4.82705        3.11542       -0.61529
H          3.34354        3.65165       -1.42714
