30
BMPYR+1.gamout	Energy:    -408.9677835
C         -3.78438        1.20155       -0.59710
C         -4.20138       -0.27200       -0.62805
C         -3.36788       -0.88297        0.49196
H         -3.95036       -0.72685       -1.59716
H         -5.27385       -0.42685       -0.45760
C         -2.27541        1.11295       -0.40988
H         -4.26377        1.72967        0.24027
H         -4.03301        1.74335       -1.51703
N         -2.04271       -0.09615        0.50556
H         -1.80679        1.99384        0.03629
H         -1.78306        0.89933       -1.36381
H         -3.14258       -1.94629        0.37359
H         -3.84140       -0.73485        1.46737
C         -1.74397        0.35335        1.90040
H         -1.65664       -0.52718        2.54462
H         -2.56453        0.98766        2.24965
H         -0.81091        0.92010        1.91412
C         -0.92582       -0.98134       -0.02259
C          0.44009       -0.31925       -0.15818
H         -1.27617       -1.34580       -0.99624
H         -0.87243       -1.83899        0.65966
C          1.45104       -1.28486       -0.79579
H          0.81595       -0.01094        0.82756
H          0.37672        0.58951       -0.77588
C          2.83996       -0.66381       -0.93938
H          1.08240       -1.59554       -1.78670
H          1.51896       -2.20218       -0.18865
H          2.81667        0.22593       -1.58637
H          3.53772       -1.38229       -1.38592
H          3.24885       -0.36341        0.03690
