13
BOB-1.gamout	Energy:    -778.5161287
B          0.51133       -0.97771        0.22051
O         -0.58192       -0.05411        0.57373
O          1.69192       -0.45221        0.92910
O          0.20772       -2.36631        0.61433
O          0.72569       -1.04023       -1.23715
C          0.57528       -2.28250       -1.67896
C          0.22487       -3.16640       -0.44395
C         -0.14050        0.90497        1.37735
C          1.37525        0.63604        1.61854
O         -0.78527        1.81172        1.83320
O          2.11494        1.29326        2.30163
O          0.01121       -4.34995       -0.45201
O          0.68828       -2.65897       -2.81562
