7
BORIC_ACID.gamout	Energy:    -252.2114028
O          0.85024        2.40363        0.28342
B          0.77998        1.79103       -0.94032
O          0.41362        0.47768       -0.94405
O          1.05060        2.40028       -2.14815
H          1.10923        3.32808        0.29465
H          0.37687        0.09704       -1.82752
H          1.30306        3.32706       -2.12882
