24
BPY+1.gamout	Energy:    -405.3745579
N          0.08028        0.58029        0.62707
C          0.61543        1.58543        1.35819
C          0.28673        2.90337        1.10377
C         -0.60534        3.19924        0.06935
C         -0.78477        0.84637       -0.37119
C         -1.14240        2.15151       -0.67473
H          1.31039        1.30126        2.14634
H          0.73198        3.68522        1.71588
H         -0.87537        4.23354       -0.15081
H         -1.83787        2.32566       -1.49222
H         -1.18111       -0.00200       -0.91692
C          0.48969       -0.82201        0.96993
C         -0.14448       -1.91034        0.11880
H          0.23643       -0.96028        2.02972
H          1.58371       -0.84674        0.87743
C          0.35543       -3.30319        0.52637
H          0.09506       -1.74537       -0.94424
H         -1.24128       -1.88055        0.22167
C         -0.27353       -4.41419       -0.31555
H         -1.36802       -4.43350       -0.20141
H          0.10936       -5.39526       -0.00868
H         -0.04702       -4.28545       -1.38474
H          0.13427       -3.47741        1.59191
H          1.45234       -3.34240        0.42656
