30
BQUIN+1.gamout	Energy:    -558.8251601
N         -2.12238        1.14178        0.00124
C         -2.74722        2.50181       -0.01296
C         -4.27149        2.52566       -0.00097
H         -2.36849        3.00915       -0.90980
H         -2.35593        3.03237        0.86508
C         -4.83428        3.95524       -0.01354
H         -4.65134        2.01067        0.89644
H         -4.66512        1.98998       -0.87977
C         -6.36403        3.95705       -0.00102
H         -4.47272        4.49224       -0.90565
H         -4.45868        4.51295        0.85964
H         -6.77031        3.43528       -0.88057
H         -6.75366        4.98266       -0.01209
H         -6.75624        3.45885        0.89841
C         -2.89494        0.05330        0.01987
C         -0.73511        1.03369       -0.00351
C         -0.15185       -0.27511        0.01202
C          0.10645        2.16839       -0.02299
C          1.26431       -0.39906        0.00722
C         -1.00160       -1.40531        0.03337
C         -2.37073       -1.24026        0.03655
H         -0.56300       -2.40596        0.04582
H         -3.05905       -2.08148        0.05225
H         -3.96694        0.21898        0.02377
C          1.47716        2.00208       -0.02680
H         -0.30022        3.17541       -0.03408
C          2.06666        0.71853       -0.01412
H          1.70372       -1.39676        0.02122
H          2.11454        2.88556       -0.04107
H          3.15110        0.61920       -0.02095
