6
BROMOCHLOROACETONITRILE.gamout	Energy:   -3165.1032865
Br        -1.46124        1.47227       -0.20453
Cl        -1.11645       -1.63326       -0.20636
N          2.07968        0.16132       -0.15855
C         -0.45292       -0.09405        0.42955
C          0.95432        0.04547        0.08631
H         -0.58309       -0.10803        1.51692
