12
BROMOPENTAFLUOROBENZENE.gamout	Energy:   -3300.7169802
C          6.33253        1.85963       -0.67073
C          6.86565        0.61283       -0.33758
C          4.94770        2.03231       -0.71878
F          7.14115        2.87909       -0.94125
F          4.43782        3.22047       -1.03630
C          4.10171        0.95840       -0.43372
C          4.62347       -0.29593       -0.09886
F          2.78668        1.15446       -0.48792
C          6.01277       -0.45587       -0.05412
Br         3.47612       -1.74424        0.28511
F          6.55037       -1.63178        0.25983
F          8.18581        0.44638       -0.29101
