8
BROMOCHLOROACETIC_ACID.gamout	Energy:   -3261.3478935
Br         1.18452        1.78959       -0.56725
Cl         1.51054       -1.17042        0.36660
O         -1.22438        0.12749        0.87390
O         -1.72534       -0.43060       -1.24910
C          0.57287       -0.07506       -0.69101
C         -0.92254       -0.14860       -0.39689
H          0.73934       -0.38082       -1.72558
H         -2.18643        0.06348        0.98476
