6
BROMOTRIFLUOROETHYLENE.gamout	Energy:   -2949.0049328
C          1.10338        0.00561        0.04316
C          0.46218        0.84020        0.86405
F          0.48479       -0.82394       -0.77249
F          2.41244       -0.08656       -0.04749
F         -0.87019        0.86394        0.88750
Br         1.31617        2.03004        2.03426
