18
BUSO4-1.gamout	Energy:    -856.2399165
O          0.83567       -2.14518       -1.51617
O          1.77730       -0.39589        0.02412
S          1.86850       -1.78025       -0.52173
O          2.16534       -2.81486        0.50857
O          3.27887       -1.76296       -1.52205
C          4.47909       -1.43598       -0.84983
C          5.61580       -1.37680       -1.86666
C          6.96426       -1.02904       -1.22908
C          8.11027       -0.94104       -2.24020
H          4.69678       -2.19380       -0.07484
H          4.37336       -0.46100       -0.34028
H          5.36405       -0.62962       -2.63837
H          5.68591       -2.34937       -2.38290
H          7.21059       -1.78233       -0.46121
H          6.87671       -0.06814       -0.69391
H          8.24459       -1.89604       -2.77304
H          9.06472       -0.69284       -1.75128
H          7.90968       -0.16647       -2.99753
