13
BUT-1.gamout	Energy:    -306.7779665
O         -3.55530        2.55428        0.90961
C         -3.44128        1.30694        0.80409
O         -4.26885        0.41727        1.12451
C         -2.11128        0.79389        0.15428
C         -0.86858        1.61430        0.50029
H         -2.26705        0.81782       -0.94159
H         -1.97483       -0.26506        0.42654
C          0.38180        1.21895       -0.29330
H         -0.66312        1.51710        1.58097
H         -1.10853        2.67558        0.33612
H          0.64196        0.15809       -0.13772
H          1.25931        1.82334       -0.00741
H          0.21874        1.35810       -1.37518
