31
BUTABARBITAL.gamout	Energy:    -725.0473381
O         -0.65551       -2.19340       -1.23594
O          0.19249        0.77884        2.26460
O         -3.34450        1.37744       -0.49957
N         -1.90057       -0.33408       -0.94929
N         -1.47277        1.15261        0.79028
C          0.30144       -0.48323        0.19416
C          1.23532        0.38755       -0.78043
C          1.08602       -1.58369        0.94038
C          2.35005        1.13810       -0.01800
C         -0.77420       -1.11300       -0.69950
C         -0.31118        0.50217        1.19733
C          1.82295       -0.43926       -1.93516
C          0.23849       -2.44950        1.87792
C          3.04987        2.21220       -0.85842
C         -2.31603        0.78790       -0.24807
H          0.57196        1.15062       -1.22158
H          1.88230       -1.09814        1.51528
H          1.56472       -2.22478        0.19131
H          3.09609        0.41181        0.33866
H          1.93892        1.61298        0.88065
H          2.55224       -1.17417       -1.56898
H          2.34786        0.23030       -2.62721
H          1.06182       -0.97740       -2.50973
H         -0.22390       -1.85028        2.67402
H         -0.55049       -2.98279        1.33067
H          0.87045       -3.20603        2.36271
H          3.75338        2.78215       -0.23603
H          2.32427        2.92593       -1.27790
H          3.62395        1.78647       -1.69241
H         -2.56052       -0.69469       -1.63128
H         -1.81745        1.88972        1.39734
