31
BUTOBARBITAL.gamout	Energy:    -725.0532605
O          0.06835       -0.91896       -2.25187
O          0.20573        1.38425        1.89796
O          3.07881       -1.99478        0.96640
N          1.58036       -1.40075       -0.64926
N          1.69010       -0.22711        1.36255
C          0.14028        0.62088       -0.39414
C         -1.39800        0.77082       -0.42035
C          0.85201        1.80800       -1.14994
C         -2.16792       -0.41849        0.16208
C          0.55442       -0.63019       -1.17937
C          0.64157        0.63163        1.05282
C         -3.68507       -0.20064        0.14157
C          0.48051        3.21913       -0.69526
C          2.19110       -1.26244        0.58812
C         -4.47473       -1.38515        0.70152
H         -1.69789        0.93471       -1.46440
H         -1.65129        1.67570        0.14474
H          0.60756        1.68071       -2.21385
H          1.94116        1.66766       -1.06293
H         -1.92962       -1.33186       -0.40585
H         -1.84733       -0.59679        1.20219
H         -4.00352        0.00014       -0.89476
H         -3.92596        0.70912        0.71605
H         -0.57848        3.44103       -0.87926
H          0.68182        3.37837        0.37161
H          1.07352        3.94694       -1.26648
H          1.89756       -2.18611       -1.20919
H          2.07154       -0.16032        2.30119
H         -4.19988       -1.58523        1.74846
H         -4.27838       -2.30062        0.12284
H         -5.55684       -1.19454        0.67010
