27
BUTYLCYCLOPENTANE.gamout	Energy:    -353.3182872
C         -1.27523        0.38829        0.44721
C         -0.97316       -0.92302       -0.33700
C          0.51421       -0.83735       -0.75431
C          1.15195        0.17836        0.21584
C          0.02654        1.21415        0.39492
H         -2.12805        0.93963        0.02728
H         -1.53713        0.15763        1.49046
H         -1.14142       -1.80076        0.30350
H         -1.63075       -1.04508       -1.20882
H          1.01183       -1.81643       -0.74135
H          0.60168       -0.44627       -1.78209
H          1.31160       -0.32410        1.18860
C          2.48463        0.77560       -0.24392
H          0.01740        1.88328       -0.48212
H          0.16963        1.84885        1.28143
H          2.32759        1.28298       -1.21256
C          3.62981       -0.23331       -0.38029
H          2.78581        1.56491        0.46591
H          3.36016       -1.00377       -1.12185
H          3.75902       -0.76585        0.57856
C          4.96006        0.40950       -0.78681
H          5.23000        1.17857       -0.04337
H          4.82175        0.94705       -1.74029
C          6.10763       -0.59176       -0.92953
H          5.87880       -1.35069       -1.69388
H          6.29307       -1.12153        0.01776
H          7.04265       -0.09296       -1.22290
