26
BUTYL_NICOTINATE.gamout	Energy:    -593.3594326
O          0.84620        0.08252        0.00110
O         -0.07419        2.13641       -0.00372
N         -2.80091       -1.80775        0.00323
C          3.18225       -0.46683        0.00357
C          4.62486        0.05260        0.00440
C          2.16688        0.66118        0.00160
C          5.66532       -1.06832        0.00612
C         -0.19378        0.93009       -0.00130
C         -1.51146        0.22666       -0.00071
C         -2.68798        0.98816       -0.00327
C         -1.62734       -1.17381        0.00249
C         -3.91340        0.32754       -0.00256
C         -3.91599       -1.07250        0.00074
H          3.01479       -1.10408       -0.87983
H          3.01322       -1.10251        0.88781
H          4.77800        0.69930        0.88474
H          4.77948        0.69782       -0.87677
H          2.26699        1.30564        0.88728
H          2.26844        1.30391       -0.88517
H          5.55633       -1.70911        0.89448
H          5.55769       -1.71036       -0.88150
H          6.68733       -0.66398        0.00661
H         -2.61780        2.07648       -0.00574
H         -0.73033       -1.79539        0.00458
H         -4.85356        0.88064       -0.00450
H         -4.86156       -1.62282        0.00140
