19
BUTYL_VINYL_ETHER.gamout	Energy:    -310.6486312
C          3.02497        1.32498        2.87099
C          4.47241        1.03756        3.25898
O          5.35274        1.05291        2.13832
C          2.06595        1.24480        4.06300
C          5.77468        2.26355        1.69654
C          0.60973        1.52571        3.68610
C          6.35330        2.44623        0.50600
H          2.96645        2.32559        2.41091
H          2.72385        0.60474        2.09309
H          4.82568        1.76038        4.01713
H          4.56392        0.03077        3.69019
H          2.13819        0.24343        4.52065
H          2.38691        1.95955        4.83973
H          5.64039        3.09053        2.40507
H         -0.04954        1.45983        4.56348
H          0.24791        0.80336        2.93842
H          0.49788        2.53329        3.25693
H          6.48373        1.62294       -0.19698
H          6.71783        3.43486        0.23273
