24
CAFFEINE.gamout	Energy:    -679.5504822
C         -0.88831       -0.22555        0.19740
C         -0.08322       -1.40243        0.36665
C         -0.36850        1.05778        0.23445
N         -2.24672       -0.05927       -0.02206
N          0.96909        1.29342        0.43797
N         -1.33441        1.99116        0.04965
N          1.27767       -1.07129        0.57006
O         -0.48186       -2.56116        0.34521
C          1.83686        0.21956        0.61384
C          1.47307        2.66297        0.47061
C          2.23224       -2.16673        0.75907
O          3.03332        0.37205        0.79864
C         -2.44676        1.27963       -0.10056
C         -3.24383       -1.11151       -0.14474
H          2.55168        2.62168        0.63771
H          1.25502        3.16498       -0.48125
H          0.98431        3.22207        1.27933
H          3.00242       -2.13105       -0.02102
H          2.72690       -2.06999        1.73337
H          1.67569       -3.10474        0.70464
H         -3.43535        1.70035       -0.27113
H         -4.22316       -0.64593       -0.30210
H         -3.00411       -1.76514       -0.99231
H         -3.26607       -1.72225        0.76594
