26
CAMPHENE.gamout	Energy:    -390.1426025
C          0.73995       -0.96825       -0.10259
C          1.79732       -1.96815       -0.61704
C          1.39406        0.42209       -0.02090
C          0.12679       -1.47187        1.25091
C         -0.52039       -0.97112       -0.99834
C         -0.92896       -2.49344        0.76414
C         -0.79494       -0.39819        1.87540
C         -0.58941       -0.60621       -2.28107
C         -1.66303       -1.47428       -0.13782
C         -2.01076       -0.36153        0.89392
H          2.67733       -1.96251        0.04421
H          2.13034       -1.68941       -1.62622
H          1.41495       -2.99506       -0.66718
H          1.86136        0.67995       -0.98149
H          2.18379        0.43921        0.74595
H          0.67097        1.21294        0.21056
H          0.88820       -1.85681        1.94281
H         -1.55932       -2.87909        1.57839
H         -0.51359       -3.34505        0.21194
H         -0.31172        0.57815        1.99680
H         -1.11008       -0.72090        2.87753
H         -1.52796       -0.65388       -2.83680
H          0.28415       -0.24692       -2.82976
H         -2.52535       -1.83875       -0.71000
H         -2.14792        0.61616        0.41383
H         -2.94839       -0.60663        1.41315
