6
CARBONIC_ACID.gamout	Energy:    -264.7156106
O         -0.87366       -1.10181        0.43367
O         -1.14037        1.05785        0.48426
O          0.82028        0.22082       -0.27064
C         -0.29131        0.07311        0.17322
H         -0.24198       -1.79753        0.20143
H         -0.69847        1.89658        0.28805
