8
CARBAMIDE.gamout	Energy:    -225.0123673
N          0.93528        0.95748       -0.13625
C          2.06009        1.72890        0.08119
N          3.22679        1.00994        0.25302
O          2.02587        2.94785        0.11808
H          0.05778        1.45839       -0.11692
H          0.90787       -0.00976        0.15524
H          3.30984        0.06631       -0.09909
H          4.07397        1.56086        0.26676
