18
CHLOROCYCLOHEXANE.gamout	Energy:    -694.9675963
Cl         0.15212       -0.25384       -2.00126
C         -0.29488       -0.27218       -0.22019
C         -1.17285       -1.48241        0.08705
C         -0.96552        1.04294        0.16641
C         -1.56608       -1.49541        1.57472
C         -1.35834        1.02646        1.65422
C         -2.24034       -0.18258        1.99402
H          0.67219       -0.36844        0.29324
H         -0.64710       -2.40776       -0.18639
H         -2.07839       -1.42757       -0.53862
H         -1.86564        1.17715       -0.45489
H         -0.29417        1.88550       -0.05053
H         -0.66271       -1.65455        2.18855
H         -2.22837       -2.35245        1.76847
H         -1.87213        1.96626        1.90578
H         -0.44473        0.99515        2.27286
H         -3.20631       -0.08591        1.46908
H         -2.46877       -0.19775        3.07050
