8
CHLOROPENTAFLUOROETHANE.gamout	Energy:   -1034.8119519
C         20.98097       18.99661       -0.00014
C         22.54339       18.98641        0.00015
Cl        23.18202       17.32639       -0.00008
F         22.97265       19.63760        1.08755
F         22.97304       19.63802       -1.08685
F         20.55458       20.26307        0.00001
F         20.51123       18.38551       -1.08739
F         20.51081       18.38510        1.08671
