8
CHLORO1,1DIFLUOROETHANE.gamout	Energy:    -737.4068434
Cl        -1.41598       -0.01876       -0.00000
C          0.39026        0.06273       -0.00000
C          0.90736        1.47871        0.00000
F          0.82843       -0.61441        1.08546
F          0.82843       -0.61441       -1.08546
H          0.55405        2.00291        0.89545
H          2.00525        1.43899        0.00000
H          0.55405        2.00292       -0.89545
