6
CHLOROACETONITRILE.gamout	Energy:    -591.9806719
Cl        -2.11025       -0.54509       -0.00000
N          0.53023        2.05797       -0.00011
C         -1.95918        1.25548       -0.00009
C         -0.56620        1.68793       -0.00010
H         -2.47148        1.63116       -0.89502
H         -2.47151        1.63125        0.89478
