38
CHLORPHENIRAMINE.gamout	Energy:   -1189.6936065
Cl         5.80561        0.21956       -0.20017
N         -2.77849        2.14213       -0.33587
N         -0.90923       -1.58749        1.19056
C         -0.28542        0.39630       -0.11001
C         -0.79669        1.34606        0.99633
C         -2.30460        1.60642        0.93797
C          1.23858        0.32675       -0.12744
C         -0.91307       -0.98956       -0.00885
C          1.95574        0.82275       -1.22573
C          1.96532       -0.21460        0.94586
C         -1.45948       -1.61910       -1.13835
C         -2.31887        3.49487       -0.59865
C         -4.22034        2.02811       -0.46927
C          3.35273        0.79530       -1.25968
C          3.36024       -0.25065        0.92927
C         -2.00502       -2.89641       -1.01019
C          4.04612        0.25811       -0.17577
C         -1.42708       -2.81156        1.31071
C         -1.98920       -3.51375        0.24181
H         -0.60422        0.82045       -1.07167
H         -0.56844        0.91155        1.97903
H         -0.23178        2.28705        0.93591
H         -2.58231        2.27718        1.78247
H         -2.83130        0.65793        1.11242
H          1.41527        1.24071       -2.07730
H          1.43035       -0.62483        1.80222
H         -1.45676       -1.10671       -2.10073
H         -1.22259        3.54376       -0.59549
H         -2.69394        4.22641        0.15229
H         -2.66530        3.81996       -1.58941
H         -4.52262        0.97588       -0.37559
H         -4.53550        2.38839       -1.45871
H         -4.77278        2.61534        0.29811
H          3.89576        1.18681       -2.11964
H          3.91294       -0.67081        1.76940
H         -2.43747       -3.40148       -1.87616
H         -1.39771       -3.25714        2.30966
H         -2.40429       -4.51123        0.39110
