8
CHLOROACETIC_ACID.gamout	Energy:    -688.2218318
Cl        -0.36136        2.46604        1.72519
O         -2.10783        0.48963        0.06887
O         -0.28727       -0.82754        0.02363
C          0.01862        1.55000        0.21683
C         -0.78426        0.26754        0.10699
H         -0.21269        2.21060       -0.62883
H          1.08249        1.29969        0.23257
H         -2.55826       -0.36684       -0.00861
