10
CHLOROPRENE.gamout	Energy:    -615.1940745
C         -0.08914       -0.00735       -0.00680
C          1.06328        0.67834       -0.04469
C          2.38906        0.06206        0.00642
Cl         1.00290        2.44078       -0.16416
C          3.57358        0.68854       -0.02780
H         -1.05913        0.48453       -0.04690
H         -0.06454       -1.09569        0.06676
H          2.36071       -1.02947        0.08026
H          4.50176        0.11837        0.01735
H          3.64683        1.77372       -0.10113
