7
CHLOROACETYL_CHLORIDE.gamout	Energy:   -1072.4754964
Cl         0.80457        1.44987        1.36670
C          1.80456        1.63859       -0.14472
O          1.43700        1.21269       -1.18052
C          3.07723        2.38555        0.19159
Cl         4.13860        2.62876       -1.22595
H          2.81293        3.36529        0.61046
H          3.62765        1.82111        0.95559
