12
CHLOROPENTAFLUOROBENZENE.gamout	Energy:   -1186.9931610
C          6.33201        1.85893       -0.67067
C          6.86568        0.61215       -0.33768
C          4.94713        2.03206       -0.71884
F          7.14061        2.87866       -0.94093
F          4.43670        3.21969       -1.03590
C          4.10104        0.95850       -0.43406
C          4.62364       -0.29639       -0.09907
F          2.78566        1.14803       -0.48627
C          6.01366       -0.45707       -0.05411
Cl         3.57130       -1.62316        0.25310
F          6.54604       -1.63442        0.26079
F          8.18543        0.44560       -0.29090
