19
CHLOROXYLENOL.gamout	Energy:    -845.0228145
Cl         2.82567        0.00777        0.00001
O         -3.07971        0.02494       -0.00019
C          0.37298        1.22325       -0.00019
C          0.39484       -1.24351        0.00008
C          1.05712       -0.00589       -0.00003
C         -1.02612        1.19106       -0.00021
C         -1.00755       -1.22939        0.00001
C         -1.71509       -0.02430       -0.00011
C          1.10293        2.54093       -0.00029
C          1.14238       -2.55152        0.00021
H         -1.59868        2.11885       -0.00032
H         -1.54918       -2.17853        0.00011
H          1.75250        2.63510        0.88286
H          1.75260        2.63492       -0.88339
H          0.39274        3.37680       -0.00041
H          1.79330       -2.63694       -0.88280
H          1.79329       -2.63677        0.88325
H          0.44484       -3.39835        0.00029
H         -3.45418       -0.86328       -0.00005
