5
CHLOROBROMODIFLUOROMETHANE.gamout	Energy:   -3271.2609382
Br        -0.00666       19.96808       -0.00001
C          1.94997       20.00828        0.00018
Cl         2.58019       21.67344       -0.00019
F          2.39798       19.36780        1.08005
F          2.39819       19.36725       -1.07928
