5
CHLORODIFLUOROMETHANE.gamout	Energy:    -698.1372760
Cl         1.70389        1.50645        0.00177
C          0.16248        0.60155       -0.00237
F         -0.86649        1.46340       -0.01554
F          0.08953       -0.16119       -1.10444
H          0.11498       -0.02799        0.89576
