21
CHOLINE+1.gamout	Energy:    -328.2547328
C         -7.28815        0.08638        1.44841
N         -5.90641        0.25737        0.88879
H         -7.68178        1.06022        1.74878
H         -7.23576       -0.57273        2.32061
H         -7.92916       -0.35989        0.68177
C         -5.02153        0.90457        1.91365
C         -5.93677        1.06617       -0.39167
H         -4.95525        0.24470        2.78407
H         -5.44837        1.86451        2.21399
H         -4.02788        1.05361        1.47990
H         -4.90827        1.10950       -0.76764
C         -6.48758        2.49084       -0.28857
H         -6.53971        0.50299       -1.11274
C         -5.34599       -1.09954        0.56481
H         -5.31781       -1.69868        1.48064
H         -4.33487       -0.97973        0.16408
H         -5.98739       -1.58257       -0.17855
H         -5.90093        3.09743        0.42230
H         -7.53943        2.49125        0.04476
O         -6.36587        2.97831       -1.60190
H         -6.69979        3.88046       -1.67509
