27
CIS,TRANS-1,2,3-TRIMETHYLCYCLOHEXANE.gamout	Energy:    -353.3176461
C          1.79405        1.49755        2.62232
C          2.52127        2.16469        1.44566
C          1.99562        3.59455        1.11835
C          4.06303        2.15877        1.69114
C          0.46993        3.71903        1.17266
C          2.69921        4.64133        1.99596
C          4.70670        0.85725        1.20187
C          4.74376        3.39234        1.08147
C          4.21748        4.70291        1.69887
H          2.25895        0.53273        2.86992
H          0.73705        1.30041        2.40017
H          1.83668        2.12273        3.52754
H          2.32416        1.55005        0.54993
H          2.28778        3.80341        0.07564
H          4.22127        2.21645        2.78374
H          0.14936        4.68867        0.76477
H          0.08853        3.65483        2.20237
H         -0.02210        2.93119        0.58274
H          2.52944        4.39436        3.05671
H          2.23951        5.62909        1.84410
H          5.77366        0.81483        1.46615
H          4.62834        0.77522        0.10619
H          4.22034       -0.02757        1.63761
H          4.58307        3.39214       -0.00948
H          5.83309        3.32420        1.22171
H          4.76895        4.91533        2.62753
H          4.43488        5.53969        1.01774
