16
CIS,TRANS-2,4-HEXADIENE.gamout	Energy:    -234.3074920
C          6.06923        0.67625        0.95123
C          5.54071        2.06229        1.17893
C          4.25532        2.43816        1.34289
C          3.07870        1.57756        1.33604
C          1.81943        2.02588        1.50346
C          0.58710        1.17364        1.50174
H          5.28060       -0.08595        0.93165
H          6.61791        0.61946       -0.00405
H          6.78821        0.39849        1.74042
H          6.29877        2.85137        1.21319
H          4.05687        3.50391        1.49908
H          3.22965        0.50424        1.18535
H          1.66610        3.10095        1.65462
H         -0.11345        1.48783        0.70947
H          0.82801        0.11273        1.34360
H          0.03928        1.26191        2.45538
