27
CIS,TRANS-1,3,5-TRIMETHYLCYCLOHEXANE.gamout	Energy:    -353.3212691
C          2.05058        1.25394        4.03344
C          2.25396        1.13105        5.54546
C          1.40428        2.58684        3.63252
C          3.37831        1.05911        3.26071
C          0.99969        2.61392        2.13988
C          3.40068        1.75049        1.87625
C          0.87431        4.05415        1.62916
C          1.98546        1.77681        1.28117
H          1.35749        0.45078        3.72620
H          2.89824        1.94238        5.91996
H          1.29689        1.18542        6.08543
H          2.73451        0.17670        5.80797
H          2.11758        3.40413        3.84013
H          0.52176        2.79007        4.25819
H          3.56874       -0.01949        3.13363
H          4.21433        1.44421        3.86784
H          0.00547        2.14405        2.05735
H          0.20020        4.64756        2.26516
H          1.85495        4.55612        1.62701
H          0.48073        4.08323        0.60232
H          2.01309        2.17206        0.25407
H          1.62510        0.73795        1.19592
C          4.41800        1.09792        0.93693
H          3.71683        2.79716        2.02625
H          5.41946        1.06709        1.39201
H          4.12586        0.06145        0.70439
H          4.49745        1.64592       -0.01365
