27
CIS,CIS-1,3,5-TRIMETHYLCYCLOHEXANE.gamout	Energy:    -353.3317451
C          2.10572        3.62234        2.72983
C          0.82260        4.37953        2.37771
C          3.30558        4.57137        2.87727
C          2.42035        2.52367        1.70202
C          4.61298        3.83812        3.21415
C          3.71234        1.75627        2.02182
C          5.79274        4.80730        3.33589
C          4.88688        2.73501        2.18033
C          4.01041        0.67984        0.97423
H          1.95040        3.12840        3.70723
H          0.58386        5.13971        3.13637
H         -0.03691        3.69663        2.30381
H          0.92467        4.89424        1.40892
H          3.44006        5.12683        1.93059
H          3.09152        5.32592        3.65124
H          1.57542        1.81913        1.63668
H          2.51619        2.98598        0.70198
H          4.47566        3.34700        4.19566
H          3.56590        1.25136        2.99488
H          5.97457        5.32560        2.38087
H          6.71784        4.27925        3.61076
H          5.60178        5.57376        4.10169
H          5.09443        3.20567        1.20155
H          5.79912        2.18336        2.45812
H          4.91955        0.11637        1.23111
H          4.16538        1.13164       -0.01853
H          3.18133       -0.03842        0.88806
