10
CIS-CROTONONITRILE.gamout	Energy:    -209.8780309
N          2.06449       -0.50372       -0.00000
C         -1.71557       -1.01099       -0.00000
C         -1.33899        0.43471        0.00000
C         -0.09031        0.93893        0.00000
C          1.09295        0.13225        0.00000
H         -2.33353       -1.24458       -0.88252
H         -0.83888       -1.67065       -0.00003
H         -2.33347       -1.24459        0.88255
H         -2.16123        1.15655        0.00001
H          0.07173        2.01936        0.00005
