21
CIS-3-HEPTENE.gamout	Energy:    -274.7802922
C          1.53487        2.44877        1.91485
C          2.63642        1.54848        2.50417
C          0.83971        3.31047        2.97062
C          3.27997        0.64970        1.48344
C          4.57517        0.58690        1.13745
C          5.72090        1.39914        1.68086
C          6.44744        2.20869        0.59420
H          1.97472        3.09329        1.13661
H          0.78905        1.81756        1.40309
H          2.18386        0.92225        3.29544
H          3.38931        2.17582        3.00316
H          1.55671        3.97884        3.47267
H          0.05424        3.93787        2.52427
H          0.36950        2.68498        3.74556
H          2.58888       -0.02508        0.96468
H          4.85241       -0.13376        0.35887
H          5.37569        2.07505        2.47520
H          6.44801        0.71458        2.15302
H          6.82519        1.54967       -0.20251
H          5.76941        2.93950        0.12926
H          7.30491        2.75467        1.01521
