6
CIS-1,2-DIIODOETHYLENE.gamout	Energy:    -672.6757241
C          0.99587       -0.06987       -0.02034
C          0.33021       -0.50963        1.04540
I          1.14013       -1.25204        2.84197
I          3.08454        0.03481       -0.27063
H          0.45369        0.29208       -0.89635
H         -0.76182       -0.51119        1.04904
