16
CIS-1,3-HEXADIENE.gamout	Energy:    -234.3014573
C          5.50325        2.81183        2.65887
C          4.89309        1.92689        1.55819
C          3.86245        2.64712        0.73382
C          2.55880        2.33498        0.57839
C          1.85282        1.20454        1.17212
C          0.54829        0.94496        0.97528
H          6.28545        2.26794        3.20884
H          4.73494        3.13146        3.37816
H          5.95851        3.71789        2.23071
H          4.46933        1.01920        2.00935
H          5.70533        1.58970        0.88949
H          4.22844        3.53958        0.21345
H          1.95203        2.98628       -0.05950
H          2.42546        0.53135        1.81581
H          0.06039        0.08761        1.44091
H         -0.07174        1.58355        0.34095
