27
CIS-1-METHYL-2-ETHYLCYCLOHEXANE.gamout	Energy:    -353.3192031
C          1.03877        3.55481        1.47909
C          1.30114        2.06518        1.73777
C          2.76608        1.61579        1.96888
C          3.23036        1.65717        3.45250
C          3.77245        2.30975        1.03288
C          3.11704        3.02963        4.13554
C          4.65802        1.07814        3.56594
C          5.66274        1.77074        2.63478
H          1.38622        4.19782        2.29809
H          1.52818        3.89953        0.55698
H         -0.04003        3.73107        1.35693
H          0.91026        1.50526        0.87252
H          0.69501        1.73248        2.59676
H          2.78788        0.54415        1.70164
H          2.56243        0.97499        4.00603
H          3.43028        2.21573       -0.00995
H          3.49524        2.97068        5.16683
H          3.69351        3.81046        3.62003
H          2.07407        3.36667        4.19232
H          4.62553        0.00423        3.31477
H          5.00152        1.13955        4.61056
H          6.65008        1.29233        2.72620
C          5.18587        1.73052        1.17757
H          3.80286        3.39043        1.24585
H          5.79879        2.81964        2.94628
H          5.18628        0.68375        0.82625
H          5.88817        2.27613        0.52855
