22
CIS-2-PHENYL-2-BUTENE.gamout	Energy:    -387.7588047
C          5.30143        2.82187        3.58031
C          4.22815        3.44668        3.04917
C          4.13908        4.94644        2.87768
C          3.05737        2.65029        2.57609
C          6.56118        3.42488        4.12769
C          2.28899        3.06268        1.46876
C          2.66988        1.46348        3.23039
C          1.20339        2.30655        1.01868
C          1.58668        0.70745        2.78231
C          0.84755        1.12260        1.66988
H          5.27959        1.72819        3.60615
H          4.92546        5.47399        3.42742
H          4.23352        5.23416        1.81785
H          3.16543        5.32377        3.22578
H          7.43516        3.10910        3.53300
H          6.55050        4.52112        4.14615
H          6.74359        3.07151        5.15645
H          2.54956        3.97850        0.93777
H          3.21193        1.14434        4.12138
H          0.63288        2.64555        0.15154
H          1.30924       -0.20433        3.31534
H         -0.00357        0.53437        1.32227
