22
CIS-3-METHYLCYCLOHEXANOL.gamout	Energy:    -349.9431887
C          2.39782        2.67538        0.01519
C          0.86597        2.57632        0.00736
C          3.04521        1.28339        0.05614
C          0.31476        1.75350        1.18338
C          1.02470        0.39292        1.30019
C          3.21718        0.89894        2.58041
C          2.56978        0.44304        1.26100
O          0.32326        2.49064        2.40913
H          2.73887        3.22321       -0.87592
H          2.73480        3.27655        0.87624
H          0.40521        3.57440        0.02946
H          0.54193        2.09363       -0.93037
H          4.14291        1.37028        0.06878
H          2.78636        0.75049       -0.87419
H         -0.75460        1.56770        1.00691
H          0.67905       -0.10638        2.21755
H          0.67976       -0.22706        0.45576
H          2.80422        0.34961        3.43808
H          4.30247        0.72188        2.55624
H          3.08103        1.97257        2.78045
H          2.91068       -0.59246        1.09678
H          1.22582        2.72389        2.65014
