18
CIS-1,2-DIMETHYLCYCLOBUTANE.gamout	Energy:    -235.5141603
C          0.52405        1.35447       -0.23076
C          0.54128       -0.17068        0.08587
C          2.10764       -0.10049        0.07002
C          2.00459        1.44151        0.22332
C         -0.09807       -0.52861        1.42521
C          2.93263       -0.89759        1.06986
H         -0.20912        1.96408        0.31682
H          0.40899        1.55596       -1.30521
H          0.11175       -0.81261       -0.69852
H          2.45367       -0.33597       -0.94922
H          2.68841        2.05699       -0.37748
H          2.09579        1.75310        1.27449
H         -1.18954       -0.39915        1.37394
H          0.10315       -1.57431        1.70288
H          0.27218        0.11202        2.23975
H          4.00007       -0.64389        0.98121
H          2.83333       -1.98112        0.90007
H          2.62821       -0.69000        2.10615
