21
CIS-2-HEPTENE.gamout	Energy:    -274.7809658
C          0.66150        4.27878        2.26770
C          1.77651        3.80909        1.33077
C          2.60076        2.64953        1.90035
C          3.72389        2.17776        0.95990
C          4.47919        0.99146        1.49524
C          5.78032        0.91324        1.81302
C          6.82389        1.98816        1.69833
H          1.07077        4.62468        3.22965
H          0.08997        5.10999        1.82932
H         -0.04496        3.46181        2.48126
H          1.34047        3.50190        0.36498
H          2.44789        4.65525        1.10637
H          1.93209        1.79943        2.12040
H          3.04140        2.94854        2.86632
H          4.40348        3.01798        0.75627
H          3.27134        1.90450       -0.01080
H          3.87117        0.09274        1.65216
H          6.14306       -0.04482        2.20135
H          7.63819        1.67294        1.02460
H          6.42203        2.93593        1.31854
H          7.28849        2.18659        2.67857
