22
CIS-2-METHYLCYCLOHEXANOL.gamout	Energy:    -349.9473465
C          0.02131        1.29521       -0.08226
C         -0.05121       -0.23336        0.03032
C          0.70224       -0.74426        1.26635
C          2.16253       -0.25497        1.30188
C          2.23314        1.28580        1.19322
C          1.47515        1.78902       -0.04496
O          1.79106        1.93871        2.38564
C          2.92929       -0.78774        2.51431
H         -0.46666        1.63767       -1.00715
H         -0.55323        1.75345        0.74251
H         -1.09841       -0.57146        0.05454
H          0.39953       -0.68104       -0.87223
H          0.68632       -1.84440        1.29494
H          0.17968       -0.41830        2.18431
H          2.65463       -0.63908        0.38960
H          3.28913        1.58291        1.11169
H          1.52027        2.88739       -0.06966
H          2.00333        1.42593       -0.94277
H          0.85372        1.76530        2.52802
H          3.98757       -0.48996        2.47634
H          2.88836       -1.88616        2.55257
H          2.50781       -0.39594        3.45044
