24
CIS-3-OCTENE.gamout	Energy:    -314.0378034
C          4.60971        2.44088        2.30881
C          4.54226        3.75223        1.56935
C          3.20084        4.00927        0.85087
C          5.32009        1.35141        1.97519
C          1.98372        4.10683        1.77732
C          6.24385        1.17038        0.80020
C          0.68625        4.43230        1.03412
C          7.68673        0.84525        1.21831
H          3.99936        2.37567        3.21499
H          4.71427        4.57432        2.28666
H          5.35328        3.81518        0.83079
H          3.28772        4.94932        0.27967
H          3.03262        3.20956        0.11034
H          5.24235        0.48157        2.63820
H          2.17519        4.88164        2.53965
H          1.85886        3.15950        2.32534
H          6.23586        2.06291        0.15984
H          5.86206        0.34231        0.17674
H          0.45098        3.65716        0.28843
H         -0.16582        4.49996        1.72599
H          0.76262        5.39317        0.50146
H          8.32320        0.67060        0.33811
H          8.12248        1.67148        1.79913
H          7.72280       -0.05858        1.84543
