18
CIS-1-METHYL-2-ETHYLCYCLOPROPANE.gamout	Energy:    -235.5118408
C          2.01460        2.60971        0.66947
C          1.79015        2.44814        2.15598
C          3.19542        2.41574        1.59038
C          4.04074        1.15600        1.53971
C          4.80422        0.88731        2.84051
H          1.73858        1.76602        0.03160
H          1.85497        3.58559        0.20770
H          3.78281        3.31837        1.78823
H          4.75594        1.24675        0.70481
H          3.40711        0.28978        1.29570
H          5.46417        1.73240        3.09108
H          4.11235        0.74532        3.68355
H          5.43048       -0.01338        2.75854
C          1.09024        1.22510        2.71165
H          1.53892        3.37011        2.68864
H          1.35842        1.05187        3.76563
H         -0.00230        1.35022        2.66262
H          1.34010        0.31621        2.14778
