18
CIS-3-HEXENE.gamout	Energy:    -235.5214353
C          3.15576        3.94757        1.94567
C          2.04984        3.27941        1.58426
C          1.94672        1.90201        0.98525
C          4.58912        3.49747        1.85101
C          1.10533        0.94153        1.84155
C          5.29433        3.46577        3.21711
H          3.01877        4.94686        2.37609
H          1.08781        3.78046        1.74560
H          2.94426        1.47089        0.82195
H          1.47967        1.98485       -0.01246
H          5.13601        4.19293        1.18946
H          4.65780        2.50732        1.37916
H          1.00804       -0.04021        1.35457
H          1.56515        0.79111        2.82941
H          0.09160        1.33964        2.00253
H          6.35199        3.18286        3.10899
H          4.81235        2.74269        3.89155
H          5.25748        4.45233        3.70452
