12
CIS-CROTONIC_ACID.gamout	Energy:    -306.1028392
O         -2.37149        0.38855       -0.69829
C         -1.32568        0.48697       -0.10960
C         -0.44166       -0.68713        0.16016
O         -0.92199        1.69693        0.36012
C          0.89980       -0.74554        0.09742
C          1.88033        0.33580       -0.25626
H         -1.00531       -1.60513        0.34163
H         -0.13033        1.60627        0.90640
H          1.34871       -1.72666        0.28477
H          1.40581        1.25751       -0.61573
H          2.52359        0.57864        0.60681
H          2.55473       -0.02487       -1.04813
