11
CROTONALDEHYDE.gamout	Energy:    -230.9428163
C          1.91983        1.12736        1.42214
C          2.35220        1.29531        2.68520
C          3.57860        0.64426        3.16737
C          0.69208        1.73356        0.82585
O          4.02039        0.75527        4.29282
H          2.51618        0.48558        0.76131
H          1.81107        1.91936        3.40266
H          4.10612        0.01253        2.40829
H          0.15971        2.37163        1.54354
H          0.00359        0.94564        0.47791
H          0.94820        2.33682       -0.06055
