27
CYCLONONANE.gamout	Energy:    -353.3038169
C          3.38910        4.36634        3.57641
C          1.97696        3.76578        3.64657
C          4.32928        3.73408        2.53893
C          1.12287        3.96280        2.36867
C          0.71554        2.69286        1.60167
C          1.82997        1.92377        0.86513
C          2.69491        0.94046        1.70444
C          4.20993        1.21527        1.77958
C          4.69076        2.25160        2.81010
H          3.30288        5.44602        3.36721
H          3.85842        4.28748        4.57140
H          2.04446        2.69653        3.89432
H          1.45893        4.22785        4.50061
H          3.89388        3.84031        1.53464
H          5.25337        4.33142        2.51714
H          0.19693        4.49166        2.64148
H          1.64715        4.63826        1.67230
H         -0.03325        2.99368        0.85095
H          0.18922        2.00450        2.28562
H          1.34489        1.34440        0.06535
H          2.47668        2.64480        0.34122
H          2.29398        0.86085        2.72687
H          2.57286       -0.06418        1.27300
H          4.70891        0.26295        2.02179
H          4.57839        1.49605        0.77782
H          4.31724        1.95534        3.80448
H          5.78594        2.16248        2.87491
