15
CYCLOPENTANE.gamout	Energy:    -196.2818607
C          1.19109        2.99177        1.03808
C          2.72295        3.02993        0.93826
C          0.84606        1.48648        1.13163
C          3.16404        1.91196        1.89335
C          2.13061        0.78554        1.66469
H          0.87182        3.51163        1.95555
H          0.69198        3.48919        0.19544
H          3.04039        2.79366       -0.09096
H          3.14662        4.01054        1.19592
H         -0.02031        1.30905        1.78375
H          0.57380        1.09325        0.14110
H          4.19682        1.58043        1.72043
H          3.10873        2.27309        2.93300
H          1.93861        0.21514        2.58383
H          2.51041        0.06601        0.92462
