11
CYCLOPROPYLAMINE.gamout	Energy:    -173.0163694
N          0.36406       -1.14096       -0.50650
C         -0.66725       -0.50879        0.27586
C         -1.31759        0.74260       -0.23208
C         -2.13306       -0.52984       -0.10814
H         -0.45338       -0.53480        1.34807
H         -1.04663        1.07183       -1.23772
H         -1.50165        1.55936        0.46714
H         -2.88549       -0.59397        0.68082
H         -2.40094       -1.04746       -1.03143
H          0.32538       -0.87440       -1.48617
H          0.31936       -2.15593       -0.45409
