19
CYCLOPENTYL_METHYL_ETHER.gamout	Energy:    -310.6652068
C         -1.87472        8.70050        1.29641
C         -0.99008        9.37556        2.37748
C         -1.28958        8.60622        3.68241
H          0.07590        9.37167        2.11342
H         -1.28705       10.42405        2.53235
C         -2.89208        7.80518        2.06689
H         -1.26968        8.09706        0.60577
H         -2.38735        9.45474        0.68414
C         -2.76213        8.21676        3.54239
H         -3.37118        9.10765        3.76276
H         -3.05670        7.42843        4.24807
H         -2.62318        6.74424        1.95123
H         -3.91762        7.91279        1.68906
O         -1.08597        9.34229        4.87162
H         -0.66969        7.68622        3.71728
C          0.26237        9.59272        5.19356
H          0.27747       10.09410        6.16964
H          0.75119       10.24913        4.45179
H          0.83917        8.65176        5.26686
