22
CYCLOOCTENE.gamout	Energy:    -312.8332355
C          3.86752        1.68460        2.40603
C          2.64085        1.02603        1.73271
C          4.71208        2.61699        1.52131
C          1.27004        1.67165        2.01287
C          1.00068        3.05271        1.37458
C          1.76011        4.21304        1.97898
C          3.03577        4.52907        1.71228
C          3.93202        3.73864        0.79766
H          4.54108        0.89528        2.77425
H          3.53697        2.23196        3.30184
H          2.79737        0.96250        0.64212
H          2.57492       -0.01799        2.07594
H          5.50013        3.06722        2.14716
H          5.23364        2.01941        0.75535
H          0.49249        0.98173        1.64674
H          1.12515        1.74183        3.10413
H          1.21418        2.98464        0.29463
H         -0.07689        3.26166        1.45460
H          1.21346        4.83353        2.69553
H          3.47809        5.38971        2.22436
H          3.33492        3.29242       -0.01226
H          4.65704        4.40931        0.31104
