11
CYCLOPENTADIENE.gamout	Energy:    -193.8415892
C          2.58934        1.30778        0.73458
C          1.32140        0.50439        0.84446
C          2.81076        1.80215        2.13867
C          0.88586        0.53821        2.12562
C          1.81258        1.34623        2.93096
H          2.49032        2.14080        0.01394
H          3.43680        0.69773        0.37110
H          0.84899       -0.01271        0.01000
H          3.64934        2.42733        2.44340
H         -0.00842        0.04874        2.51203
H          1.70156        1.53978        3.99814
