20
CYCLOHEPTANONE.gamout	Energy:    -348.7391158
C         -3.13546        0.19743       -0.11613
C         -3.86790        1.42135        0.44607
C         -3.60728       -0.24640       -1.51456
C         -5.36527        1.24980        0.71091
C         -5.91692       -0.16702        0.75278
C         -6.00665       -0.81692       -0.66228
C         -5.12581       -0.16879       -1.74378
O         -6.07534        2.21902        0.88991
H         -2.05733        0.41356       -0.15172
H         -3.24053       -0.63940        0.59099
H         -3.75409        2.30394       -0.20166
H         -3.42752        1.70754        1.41663
H         -3.11511        0.37525       -2.27962
H         -3.25897       -1.27667       -1.69244
H         -6.90711       -0.12275        1.22129
H         -5.26678       -0.77203        1.40296
H         -7.05090       -0.75190       -0.99939
H         -5.77356       -1.89012       -0.58485
H         -5.42463        0.88703       -1.85189
H         -5.35919       -0.63688       -2.71201
