15
CYCLOPENTYL_CHLORIDE.gamout	Energy:    -655.6979646
Cl         1.76966       -1.90111        0.06865
C          3.36927       -1.23329        0.62389
C          3.26737        0.17404        1.21117
C          4.01105       -2.05603        1.74042
C          4.61658        0.34241        1.94648
C          5.08764       -1.10206        2.31085
H          3.99909       -1.23555       -0.27637
H          3.08094        0.94257        0.45014
H          2.42928        0.19934        1.92410
H          4.41427       -3.01318        1.38536
H          3.24589       -2.27818        2.49918
H          4.51548        0.98200        2.83331
H          5.35134        0.82848        1.28905
H          6.06698       -1.31103        1.85786
H          5.20695       -1.23746        3.39399
