19
CYCLOHEPTENE.gamout	Energy:    -273.5768327
C          1.54217        0.89282        1.93692
C          0.64665        2.14207        1.91197
C          1.40169        3.48096        1.88621
C          2.75804        0.97911        2.87557
C          2.62089        3.52642        0.95010
C          3.91165        1.79867        2.33798
C          3.85533        2.83687        1.49019
H          0.92882        0.02201        2.21596
H          1.91426        0.68599        0.92096
H         -0.01512        2.07555        1.03286
H         -0.01767        2.13454        2.79166
H          0.69667        4.27965        1.60742
H          1.74784        3.72794        2.90247
H          2.44667        1.35799        3.86695
H          3.13424       -0.03896        3.06348
H          2.35443        3.11696       -0.04235
H          2.88568        4.57915        0.76295
H          4.90661        1.47455        2.65897
H          4.80957        3.26762        1.17081
