24
CYCLOOCTANE.gamout	Energy:    -314.0492927
C          1.03822        2.72193        1.36606
C          1.41741        1.26225        1.68900
C          1.57598        3.77036        2.36580
C          2.85385        0.99025        2.16952
C          2.66550        4.70270        1.79906
C          4.01260        1.46585        1.27159
C          3.75686        4.06731        0.91886
C          4.55795        2.89038        1.50993
H         -0.05933        2.77817        1.31619
H          1.38089        2.97147        0.35121
H          1.21778        0.64568        0.79694
H          0.73648        0.88495        2.47022
H          1.95996        3.26332        3.26297
H          0.75119        4.40226        2.72729
H          2.93924       -0.09982        2.30058
H          2.99400        1.41049        3.17842
H          3.14946        5.22716        2.63955
H          2.17897        5.48880        1.19769
H          3.73847        1.35425        0.20813
H          4.85490        0.77452        1.43154
H          4.46167        4.87399        0.66314
H          3.32482        3.75134       -0.04456
H          5.56506        2.92315        1.06546
H          4.71009        3.04216        2.59278
