11
CYCLOBUTANONE.gamout	Energy:    -230.9359291
O          0.02530        1.70659        0.65965
C          1.21660        1.74139        0.80384
C          2.23337        2.88148        0.94487
C          3.36482        1.80681        0.96682
C          2.30512        0.66380        0.89138
H          2.23593        3.58672        0.10084
H          2.10537        3.45705        1.87424
H          4.03155        1.85022        0.09693
H          3.97648        1.80459        1.87700
H          2.35136        0.00112        0.01464
H          2.21635        0.03699        1.79173
