24
CYCLOHEXYL_ACETATE.gamout	Energy:    -463.1697281
O          0.58336       -0.37264       -0.86972
O          1.79508       -0.65267        1.01849
C         -0.58445        0.09001       -0.14517
C         -0.91841        1.50543       -0.61429
C         -1.73218       -0.88478       -0.40573
C         -2.22054        2.00409        0.03065
C         -3.03396       -0.38577        0.23881
C         -3.38377        1.03528       -0.22381
C          1.69476       -0.70761       -0.18600
C          2.80288       -1.16336       -1.10581
H         -0.33112        0.09551        0.92373
H         -1.02419        1.49365       -1.71166
H         -0.08177        2.17900       -0.37808
H         -1.46190       -1.87930       -0.02152
H         -1.86495       -0.98460       -1.49564
H         -2.46133        3.00747       -0.35129
H         -2.07010        2.11268        1.11839
H         -2.92062       -0.39188        1.33642
H         -3.85245       -1.08339        0.00694
H         -4.29198        1.38936        0.28744
H         -3.61617        1.02122       -1.30278
H          2.50115       -1.13236       -2.15786
H          3.09248       -2.18570       -0.82689
H          3.67920       -0.52072       -0.94533
