23
CYCLOOCTANONE.gamout	Energy:    -387.9931102
O         -1.89197        0.45659       -1.16685
C         -1.35421       -0.02337       -0.18575
C         -0.82866       -1.45011       -0.21786
C         -1.20342        0.79211        1.08797
C          0.71372       -1.58405       -0.18143
C          0.24998        1.19076        1.44459
C          1.48309       -0.58013       -1.07109
C          1.10917        1.68155        0.25628
C          2.07302        0.64666       -0.35159
H         -1.21216       -1.89619       -1.14506
H         -1.25955       -2.00710        0.63039
H         -1.63625        0.22162        1.92621
H         -1.80764        1.69816        0.94780
H          0.94399       -2.60800       -0.50904
H          1.08087       -1.51861        0.85275
H          0.17590        1.99080        2.19489
H          0.75998        0.35977        1.95232
H          0.83798       -0.24818       -1.90038
H          2.32457       -1.10904       -1.54329
H          1.72216        2.52867        0.59885
H          0.45646        2.08692       -0.53334
H          2.75326        0.29197        0.44280
H          2.71060        1.17705       -1.07693
