20
CYCLOHEXYL_ISOCYANATE.gamout	Energy:    -402.8455519
C         -2.65557        0.36439        2.88981
N         -2.69077        1.01125        1.87872
C         -3.52287        1.36671        0.75079
O         -2.51143       -0.22992        3.89713
C         -4.78407        2.12719        1.19558
C         -3.88859        0.13250       -0.09147
C         -5.64953        2.51490       -0.01133
C         -4.75473        0.52162       -1.29710
C         -6.01030        1.29275       -0.86666
H         -2.91916        2.04300        0.12409
H         -5.36094        1.47753        1.87535
H         -4.49259        3.01616        1.77328
H         -2.96940       -0.37682       -0.41486
H         -4.44068       -0.57471        0.55019
H         -6.56069        3.02589        0.33399
H         -5.10103        3.24441       -0.63185
H         -5.03206       -0.38065       -1.86245
H         -4.16127        1.14777       -1.98554
H         -6.66341        0.62189       -0.28235
H         -6.58933        1.60196       -1.74993
