25
CYCLOOCTANOL.gamout	Energy:    -389.1911928
C         -1.44205       -0.01600       -0.17863
C         -0.83226       -1.42224       -0.26118
C         -1.20562        0.78477        1.10859
C          0.70206       -1.54265       -0.20284
C          1.48482       -0.56541       -1.09792
C          2.06142        0.66288       -0.37255
O          2.56548       -1.32477       -1.65748
C          1.10030        1.68526        0.26088
C          0.24845        1.17556        1.44561
H         -2.53084       -0.11691       -0.31260
H         -1.10355        0.57732       -1.04265
H         -1.25909       -2.05247        0.53636
H         -1.16978       -1.87158       -1.20978
H         -1.63149        0.23498        1.96443
H         -1.79595        1.71238        1.02719
H          1.06649       -1.46267        0.83072
H          0.97353       -2.55364       -0.53569
H          0.83090       -0.22852       -1.92419
H          2.74788        0.28312        0.40258
H          2.69148        1.20513       -1.09912
H          3.12444       -0.74925       -2.19173
H          0.44962        2.12140       -0.51414
H          1.72754        2.51726        0.61349
H          0.76770        0.33532        1.92818
H          0.20145        1.96278        2.21295
