16
CYCLOPENTANETHIOL.gamout	Energy:    -594.3077560
S          0.01713        2.66964        1.64506
C          1.77083        2.12885        1.74966
C          2.78450        2.98184        0.97300
C          4.07422        2.12954        0.98655
C          3.60769        0.65043        1.17529
C          2.06503        0.70178        1.26467
H         -0.10502        2.54552        0.30203
H          1.98749        2.19788        2.82835
H          2.42307        3.11517       -0.05912
H          2.91395        3.98290        1.40493
H          4.65907        2.26548        0.06659
H          4.72383        2.43390        1.81973
H          3.94410        0.00174        0.35513
H          4.03035        0.23257        2.10020
H          1.61761        0.56365        0.26757
H          1.63655       -0.06525        1.92311
