21
CYCLOHEXYL_FORMATE.gamout	Energy:    -423.8946865
O          0.54279        1.69602       -0.71269
O          2.24498        3.10292       -0.37794
C         -0.46155        0.85260       -0.10688
C         -1.84191        1.31844       -0.56790
C         -0.18618       -0.59960       -0.49809
C         -2.94621        0.38029       -0.05758
C         -1.29134       -1.53519        0.01337
C         -2.67920       -1.07844       -0.45479
C          1.38412        2.39370        0.06145
H         -0.38609        0.95767        0.99040
H         -1.84368        1.34027       -1.66958
H         -2.01661        2.35030       -0.22889
H          0.79729       -0.90533       -0.11159
H         -0.12633       -0.64922       -1.59722
H         -3.91963        0.71561       -0.44455
H         -3.00872        0.45068        1.04227
H         -1.26975       -1.56006        1.11680
H         -1.08549       -2.56258       -0.32169
H         -3.45717       -1.73462       -0.03622
H         -2.74335       -1.17490       -1.55213
H          1.20127        2.24775        1.15096
