16
CYCLOHEXENE.gamout	Energy:    -234.3264119
C          0.72050        2.17167        3.01057
C          1.96027        2.01143        3.90078
C          1.10037        2.71034        1.62333
C          2.96914        1.03687        3.27522
C          2.32569        2.03117        1.06128
C          3.15150        1.27331        1.79552
H         -0.01562        2.83588        3.48824
H          0.23316        1.18885        2.89617
H          1.67247        1.66687        4.90560
H          2.43939        2.99659        4.02906
H          1.27823        3.80093        1.67226
H          0.25722        2.58898        0.92310
H          2.64347       -0.00725        3.43946
H          3.94378        1.11744        3.78448
H          2.53367        2.17398       -0.00316
H          4.00912        0.79412        1.31420
