19
CYCLOHEXANONE_OXIME.gamout	Energy:    -364.7246963
C         -3.89760        1.03872        1.13202
C         -5.09788        1.94830        1.23784
C         -4.12562       -0.05933        0.07540
C         -4.56432        0.53968       -1.26768
C         -5.81761        1.41081       -1.10811
C         -5.62012        2.52272       -0.05690
N         -5.58683        2.13294        2.40529
O         -6.70159        2.98694        2.41656
H         -3.67637        0.61306        2.11926
H         -3.02443        1.64507        0.83040
H         -3.20681       -0.65235       -0.04789
H         -4.90368       -0.75047        0.43988
H         -4.75286       -0.26125       -1.99867
H         -3.74338        1.15295       -1.67832
H         -6.09744        1.86338       -2.07124
H         -6.66483        0.77676       -0.79919
H         -6.54895        3.07571        0.11607
H         -4.87308        3.24432       -0.43325
H         -6.94842        3.00716        3.34739
