17
CYCLOHEXANONE.gamout	Energy:    -309.4836154
O          4.40506        0.59426        1.22487
C          3.45213        1.32993        1.38425
C          2.06967        1.01200        0.84985
C          3.57273        2.65112        2.13595
C          0.96260        1.17984        1.91389
C          2.23491        3.37878        2.30045
C          1.15786        2.42240        2.82329
H          1.88624        1.71544        0.01819
H          2.07812        0.00065        0.42689
H          4.02528        2.42435        3.11530
H          4.31144        3.26696        1.59922
H         -0.00711        1.23343        1.39906
H          0.92940        0.27173        2.53204
H          2.35094        4.22817        2.98864
H          1.92064        3.81053        1.33599
H          0.20617        2.95876        2.93306
H          1.44555        2.09650        3.83540
