11
CYRENE.gamout	Energy:    -454.7089767
O         27.28845       -7.44726       -0.08772
O         25.93680       -7.36739       -1.87972
O         28.45555       -9.25279       -2.89623
C         27.24251       -6.08263       -0.55909
C         28.40554       -5.98386       -1.49225
C         27.04275       -8.21058       -1.18117
C         26.01215       -6.13466       -1.54226
C         28.80236       -6.92894       -2.18841
C         28.23571       -8.27891       -2.23849
H         27.16439       -5.39732        0.28695
H         26.63425       -9.19716       -0.95179
