13
D-ALANINE.gamout	Energy:    -323.3635426
O          1.78036       -0.19663       -1.42626
O          1.26476        1.80020       -0.54239
N         -0.75659        2.21109       -2.52028
C         -0.13353        0.91533       -2.33746
C         -1.18218       -0.12743       -1.92211
C          1.02332        0.92047       -1.33324
H          0.30074        0.59765       -3.29963
H         -1.97831       -0.15546       -2.67705
H         -0.73586       -1.12513       -1.82849
H         -1.63058        0.14350       -0.95390
H         -1.20870        2.52309       -1.66327
H         -0.07287        2.92268       -2.76396
H          2.47846       -0.14155       -0.75386
