17
D-PROLINE.gamout	Energy:    -400.6666385
O         -2.20415        1.08961       -0.08485
O         -2.10073       -1.15180       -0.13771
N          0.71497       -1.06840       -0.19744
C         -0.06696        0.11817       -0.48473
C          0.65234        1.22756        0.32656
C          2.08681        0.67228        0.54023
C          2.10966       -0.65355       -0.24393
C         -1.54119       -0.08486       -0.19921
H         -0.03127        0.40124       -1.56339
H          0.14249        1.39254        1.28324
H          0.64312        2.17973       -0.21690
H          2.86282        1.36777        0.19591
H          2.26303        0.47983        1.60665
H          2.47026       -0.47382       -1.27970
H          2.76192       -1.41138        0.20992
H          0.47308       -1.87971       -0.75600
H         -3.14633        0.88462        0.02703
