29
DBA+1.gamout	Energy:    -370.9171862
C         -2.08061        1.43279       -0.35718
C         -0.38336        2.41843       -2.04360
N         -0.91460        1.20841       -1.29806
C         -3.32011        1.93228       -1.08669
H         -1.73580        2.13205        0.41082
H         -2.26420        0.46249        0.12272
C         -4.57962        1.89697       -0.20856
C         -4.52103        2.80447        1.02192
H         -4.78695        0.85857        0.09678
H         -5.42193        2.19996       -0.84464
H         -4.28325        3.84233        0.74163
H         -3.77524        2.46945        1.75901
C          0.21667        3.46756       -1.11752
H          0.37297        2.02422       -2.73463
H         -1.21505        2.81313       -2.63713
C          1.37943        2.96746       -0.25132
C          2.02902        4.08224        0.57267
H          2.13847        2.49784       -0.89888
H          1.02969        2.18096        0.44266
H          1.30420        4.55504        1.25137
H          2.44127        4.86458       -0.08019
H         -3.16139        2.96278       -1.43762
H         -0.56644        3.91820       -0.48872
H         -3.48862        1.30966       -1.98075
H          0.56792        4.27815       -1.77232
H         -5.49083        2.81527        1.53431
H          2.85016        3.68634        1.18312
H         -1.18921        0.50214       -1.98861
H         -0.13866        0.79973       -0.76529
