26
DELTA-3-CARENE.gamout	Energy:    -390.1320994
C         -0.01880        0.54200       -1.62612
C          0.05426       -0.78263       -1.43115
C         -0.27054       -1.42826       -0.10317
C         -0.41538        1.56520       -0.59547
C         -0.74582        1.00640        0.78019
C         -0.66967       -0.49016        1.02519
C         -2.01091        0.21832        1.06082
C         -3.02206       -0.01750       -0.04767
C         -2.65413        0.41208        2.42443
H         -0.40798        1.63989        1.60366
H         -0.28540       -0.79361        2.00182
C          0.46779       -1.72640       -2.54468
H          0.23513        0.93929       -2.61471
H         -1.05476       -2.19167       -0.26698
H          0.61416       -2.00604        0.21541
H         -1.26157        2.16297       -0.98288
H          0.41115        2.28869       -0.48982
H         -3.71948        0.83163       -0.12205
H         -3.62479       -0.91439        0.16541
H         -2.55456       -0.15319       -1.02911
H         -3.24245       -0.47342        2.71382
H         -3.33733        1.27653        2.41842
H         -1.90275        0.58529        3.20756
H         -0.24671       -1.70094       -3.38194
H          0.52261       -2.76606       -2.19328
H          1.45575       -1.46220       -2.95067
