24
DGLUCOSE.gamout	Energy:    -686.3841749
O          1.06785        0.25243       -0.10381
O          2.28338       -2.34551       -0.06717
O          4.67873       -2.51347       -1.62598
O          6.35775       -0.22396       -1.43789
O          3.05940        1.17182       -0.76328
O          4.58263        3.54992       -0.72028
C          2.45019        0.09739       -0.07234
C          2.78622       -1.22408       -0.77113
C          4.30173       -1.38366       -0.85699
C          4.94667       -0.15545       -1.50007
C          4.49068        1.11640       -0.76985
C          4.97850        2.39561       -1.43478
H          0.80633        1.02167        0.41588
H          1.32081       -2.29104       -0.02910
H          4.26933       -3.30115       -1.24688
H          6.63545       -1.09159       -1.75847
H          3.62153        3.53405       -0.63287
H          2.82635        0.07739        0.97086
H          2.36738       -1.17705       -1.79152
H          4.69906       -1.47935        0.17105
H          4.60904       -0.09798       -2.55179
H          4.86289        1.08792        0.27109
H          6.07434        2.39050       -1.46336
H          4.60449        2.42200       -2.47457
