27
DI-ISO-BUTYL_SULFIDE.gamout	Energy:    -713.2843593
C          1.71642        0.05134       -0.07225
S          3.31532        0.95029        0.02472
C          4.44616       -0.49508        0.09348
C          0.51295        1.00550       -0.10983
C          5.92505       -0.08045        0.11080
C          0.48538        1.86250       -1.38253
C         -0.78888        0.20490        0.04299
C          6.30240        0.69464        1.37949
C          6.81102       -1.32401       -0.06026
H          1.72069       -0.58502       -0.97255
H          1.64436       -0.60661        0.80666
H          4.21049       -1.09015        0.99142
H          4.24482       -1.12143       -0.78861
H          0.59796        1.67891        0.76015
H          6.09429        0.57677       -0.75940
H         -0.37619        2.54589       -1.37133
H          1.39726        2.46478       -1.49029
H          0.39716        1.22488       -2.27694
H         -1.66066        0.87549        0.05007
H         -0.80041       -0.37282        0.97900
H         -0.91778       -0.50129       -0.79263
H          7.36171        0.98903        1.35434
H          5.69916        1.60456        1.49915
H          6.14822        0.07058        2.27459
H          7.87495       -1.04663       -0.08285
H          6.58038       -1.85581       -0.99490
H          6.66665       -2.02660        0.77582
