27
DI-N-BUTYL_SULFIDE.gamout	Energy:    -713.2846018
S         67.98039        9.89970        0.00000
C         66.36825        9.02349        0.00001
C         69.12610        8.46676       -0.00001
C         70.57686        8.94718       -0.00002
C         71.59120        7.79790        0.00000
C         73.04214        8.28366       -0.00000
C         65.21670       10.02878        0.00001
C         63.83677        9.35958       -0.00000
C         62.68514       10.36763       -0.00000
H         66.31385        8.37757       -0.89018
H         66.31386        8.37760        0.89024
H         68.92515        7.85005        0.89016
H         68.92514        7.85005       -0.89018
H         70.74711        9.58473       -0.88328
H         70.74714        9.58482        0.88317
H         71.41802        7.15770        0.88166
H         71.41801        7.15764       -0.88161
H         73.74766        7.44070        0.00001
H         73.25391        8.89864       -0.88844
H         73.25390        8.89868        0.88841
H         65.30619       10.68219        0.88315
H         65.30619       10.68219       -0.88313
H         63.75019        8.70247       -0.88163
H         63.75017        8.70246        0.88162
H         61.70956        9.86076       -0.00002
H         62.72728       11.01607        0.88858
H         62.72731       11.01611       -0.88856
