23
DI-N-PROPYL_SULFONE.gamout	Energy:    -784.9942336
C         -0.09249        0.48146       -0.01735
C          1.26315        1.19468       -0.01195
C          1.09995        2.71484       -0.00704
S          2.71866        3.55445       -0.00035
C          2.27904        5.32332        0.00592
O          3.39229        3.23989        1.28076
O          3.39792        3.24993       -1.28084
C          3.52413        6.20904        0.01287
C          3.16141        7.69674        0.01868
H          0.04527       -0.60861       -0.02083
H         -0.68557        0.74323        0.87202
H         -0.68148        0.74945       -0.90758
H          1.84820        0.89996       -0.89492
H          1.84456        0.89395        0.87142
H          0.57016        3.06618        0.89025
H          0.57436        3.07267       -0.90427
H          1.66499        5.48605       -0.89207
H          1.66118        5.47832        0.90267
H          4.13134        5.96555        0.89684
H          4.13621        5.97388       -0.87004
H          4.07031        8.31432        0.02454
H          2.57500        7.97079       -0.87159
H          2.56943        7.96245        0.90785
