27
DI-N-BUTYL_ETHER.gamout	Energy:    -390.3908873
C          3.43308        5.19220        0.55824
O          3.35272        6.25964        1.48111
C          4.59252        6.83281        1.84379
C          2.02815        4.68092        0.26709
C          4.34671        7.97631        2.81916
C          1.98879        3.51766       -0.73074
C          5.62978        8.67661        3.28059
C          0.57105        3.01362       -1.01403
C          5.37085        9.82791        4.25584
H          3.92033        5.53332       -0.37769
H          4.06185        4.37650        0.96930
H          5.11913        7.20523        0.94160
H          5.24860        6.06755        2.30613
H          1.42636        5.52184       -0.11395
H          1.56738        4.37383        1.21977
H          3.80166        7.57962        3.69087
H          3.67562        8.70501        2.33645
H          2.45735        3.82796       -1.68028
H          2.59926        2.68119       -0.34958
H          6.30178        7.94266        3.75735
H          6.17533        9.06304        2.40274
H          0.58301        2.18139       -1.73214
H          0.08255        2.65452       -0.09503
H         -0.05952        3.81110       -1.43680
H          4.73611       10.60258        3.79845
H          4.86189        9.47514        5.16623
H          6.31165       10.30591        4.56345
