27
DI-SEC-BUTYL_ETHER.gamout	Energy:    -390.3948613
O         51.94254       29.48328       -0.00671
C         50.67501       28.87271        0.22823
C         53.04859       28.61108       -0.23192
C         50.52513       28.52769        1.71799
C         49.61445       29.84257       -0.28080
C         53.12770       28.24190       -1.72164
C         54.29198       29.32590        0.28510
C         49.27581       27.71259        2.06247
C         54.18378       27.18761       -2.06400
H         50.60844       27.93661       -0.35907
H         52.90613       27.68149        0.35224
H         51.41841       27.96467        2.03033
H         50.53874       29.47068        2.28804
H         48.60259       29.43777       -0.14609
H         49.76803       30.04672       -1.34867
H         49.68566       30.79521        0.26454
H         52.13771       27.87416       -2.03421
H         53.30839       29.16707       -2.29169
H         55.18990       28.70507        0.16553
H         54.17555       29.56663        1.35014
H         54.44006       30.26579       -0.26651
H         49.26604       27.44359        3.12837
H         48.35110       28.27040        1.85595
H         49.23770       26.77618        1.48371
H         54.13672       26.91849       -3.12889
H         55.20325       27.54557       -1.86060
H         54.03049       26.26576       -1.48114
