27
DI-TERT-BUTYL_SULFIDE.gamout	Energy:    -713.2805227
S          0.65238       -0.68261       -2.90492
C         -0.25902       -1.31554       -4.42403
C          2.39611       -1.37332       -2.75953
C          0.56408       -1.19798       -5.71213
C         -1.46826       -0.36507       -4.49349
C         -0.75567       -2.75535       -4.22390
C          3.36119       -0.67733       -3.73138
C          2.46028       -2.89576       -2.92648
C          2.77031       -0.99695       -1.31423
H          0.94339       -0.17773       -5.85320
H          1.41208       -1.89345       -5.72126
H         -0.07224       -1.45190       -6.57525
H         -2.12022       -0.66331       -5.32905
H         -1.15029        0.67369       -4.65340
H         -2.06090       -0.40654       -3.56877
H          0.06928       -3.47323       -4.16111
H         -1.38851       -3.04939       -5.07780
H         -1.35527       -2.83999       -3.30823
H          4.39318       -1.00677       -3.52538
H          3.14118       -0.91684       -4.77742
H          3.31942        0.41320       -3.61174
H          2.23709       -3.20644       -3.95446
H          1.76294       -3.40244       -2.24678
H          3.47984       -3.24406       -2.69618
H          2.10781       -1.48964       -0.59010
H          3.80547       -1.31068       -1.10744
H          2.70720        0.08882       -1.15462
