26
DIALLYL_MALEATE.gamout	Energy:    -688.2816148
C          0.10536       49.01365       -0.04907
C          1.13268       49.97061        0.48173
C          0.29827       47.73037       -0.38156
O          2.01603       50.34121       -0.44983
O          1.09130       50.39003        1.61375
C          3.06190       51.26566       -0.05653
C          2.66277       52.68261       -0.34832
C          2.57174       53.63978        0.57796
C          1.61419       47.04491       -0.28424
O          1.55760       45.82606       -0.85481
O          2.60615       47.49757        0.24299
C          2.76554       45.02758       -0.83826
C          2.93540       44.30020        0.46308
C          2.95872       42.96957        0.57152
H         -0.90484       49.42822       -0.09138
H         -0.54040       47.12374       -0.72426
H          3.28957       51.12085        1.00602
H          3.92512       50.96208       -0.66318
H          2.44829       52.91171       -1.39702
H          2.29691       54.66161        0.31215
H          2.76708       53.43269        1.63239
H          2.65244       44.32571       -1.67241
H          3.61900       45.69479       -1.02580
H          3.06514       44.92944        1.34763
H          3.11158       42.48213        1.53529
H          2.83371       42.32136       -0.29942
