22
DIBENZOPYRROLE.gamout	Energy:    -516.8063564
C          3.37065       -0.96777       -0.35793
C          2.91796        0.17963        0.32269
C          2.51946       -2.05171       -0.57158
C         -1.00611       -2.24109        0.52515
N         -0.56580       -0.99645        0.95047
C          0.06796       -2.89838       -0.13823
C         -2.26179       -2.84155        0.66995
C          0.76099       -0.82090        0.58579
C          1.19972       -1.98883       -0.09930
C          1.61056        0.26982        0.80316
C         -0.13414       -4.18389       -0.66284
C         -1.38359       -4.78749       -0.52162
C         -2.43448       -4.12061        0.13852
H          4.39890       -1.00642       -0.72100
H          3.60222        1.01600        0.47825
H          2.87631       -2.93790       -1.09975
H         -1.12532       -0.32130        1.44918
H         -3.07967       -2.32954        1.18041
H          1.26535        1.16151        1.32990
H          0.67619       -4.70557       -1.17545
H         -1.55110       -5.78694       -0.92595
H         -3.40411       -4.61239        0.23741
