29
DIBENZYL_ETHER.gamout	Energy:    -616.3324558
O          6.60258        4.13302       -1.28038
C          7.29777        2.94253       -0.97920
C          6.33083        1.84496       -0.60038
C          7.44632        5.22832       -1.56417
C          6.64987        0.50506       -0.86271
C          5.12670        2.14056        0.05531
C          6.63057        6.43595       -1.96289
C          5.78881       -0.52300       -0.46924
C          4.26198        1.11309        0.44167
C          7.08973        7.72688       -1.66540
C          5.42902        6.28947       -2.67149
C          4.59046       -0.22172        0.18449
C          6.36899        8.85196       -2.07600
C          4.70438        7.41383       -3.07514
C          5.17266        8.69878       -2.78229
H          7.90930        2.62473       -1.84541
H          8.00131        3.12664       -0.14104
H          8.07274        5.46844       -0.68348
H          8.14051        4.95679       -2.38640
H          7.57897        0.26194       -1.38353
H          4.86761        3.18158        0.24759
H          6.05071       -1.56115       -0.68232
H          3.32529        1.35730        0.94684
H          8.01801        7.85485       -1.10374
H          5.06051        5.28759       -2.89162
H          3.91399       -1.02293        0.48720
H          6.73894        9.85040       -1.83510
H          3.76780        7.28571       -3.62164
H          4.60519        9.57580       -3.09875
