21
DIBENZOTHIOPHENE.gamout	Energy:    -859.5392619
S         -0.00002       -2.14358       -0.00030
C          0.72841        0.40606       -0.00009
C         -0.72844        0.40607       -0.00009
C          1.26130       -0.90608       -0.00020
C         -1.26134       -0.90607       -0.00020
C          1.61632        1.49609        0.00000
C         -1.61633        1.49611       -0.00000
C          2.64151       -1.13738       -0.00020
C         -2.64154       -1.13736       -0.00020
C          2.99039        1.27175       -0.00000
C         -2.99040        1.27178       -0.00000
C          3.50020       -0.03892       -0.00010
C         -3.50022       -0.03888       -0.00010
H          1.22735        2.51564        0.00003
H         -1.22737        2.51567        0.00003
H          3.03981       -2.15299       -0.00029
H         -3.03985       -2.15296       -0.00029
H          3.67737        2.11928        0.00003
H         -3.67739        2.11930        0.00003
H          4.57945       -0.20139       -0.00010
H         -4.57948       -0.20135       -0.00010
