5
DIBROMODIFLUOROMETHANE.gamout	Energy:   -5384.9824306
C         -0.85098       -0.20293        1.01723
Br        -0.48595        1.62977        0.44286
Br         0.76269       -1.12177        1.62440
F         -1.38600       -0.87968        0.00107
F         -1.73895       -0.17970        2.01070
