8
DIBROMOACETIC_ACID.gamout	Energy:   -5375.0720493
Br        -1.36049        2.56586        0.90526
Br        -1.71313       -0.67294        0.69248
O          0.97331        0.75074       -0.39183
O          1.70862        0.53244        1.72317
C         -0.63725        0.81032        1.38123
C          0.81169        0.68202        0.93272
H         -0.67023        0.74228        2.46945
H          1.91924        0.66066       -0.59108
