30
DIBUTYLCARBAMATE-1.gamout	Energy:    -558.3639572
C         -2.11623        1.59110       -0.19528
C         -0.44221        2.71758       -1.62381
N         -0.91582        1.50813       -0.99427
C         -3.41897        1.51184       -1.01492
H         -2.09008        2.52827        0.38773
H         -2.10851        0.75389        0.51590
C         -4.70128        1.47823       -0.17606
C         -5.02648        2.78095        0.56422
H         -4.62662        0.65180        0.55141
H         -5.54894        1.22434       -0.83435
H         -5.12937        3.62126       -0.14195
H         -4.23551        3.04702        1.28124
C          0.48181        3.57476       -0.73572
H          0.10388        2.41573       -2.52692
H         -1.29983        3.34219       -1.94465
C          1.83280        2.91431       -0.45895
C          2.74520        3.72492        0.46545
H          2.34160        2.73185       -1.41898
H          1.65355        1.91624       -0.03364
H          2.28122        3.88068        1.45349
H          2.96801        4.72127        0.04620
H         -3.46528        2.35515       -1.72663
H         -0.02951        3.78476        0.22229
C         -0.45848        0.20982       -1.44795
O          0.51175        0.22338       -2.24411
O         -1.08567       -0.77163       -0.97608
H         -3.35191        0.59084       -1.60934
H          0.64014        4.55622       -1.22344
H         -5.97050        2.69781        1.12592
H          3.70325        3.20797        0.62637
