8
DICHLOROACETIC_ACID.gamout	Energy:   -1147.6223473
C          0.40732        0.22292        0.20090
C         -1.10983        0.22791       -0.03352
Cl        -1.77097       -1.33205        0.57780
Cl        -1.87974        1.63051        0.73948
O          1.01875       -0.34316       -0.85409
O          0.96909        0.64143        1.17268
H         -1.33429        0.26351       -1.10348
H          1.97224       -0.38210       -0.67228
