5
DICHLOROFLUOROMETHANE.gamout	Energy:   -1058.4013658
Cl         1.72563        1.48255        0.00197
C          0.16960        0.60960       -0.01141
Cl        -1.22061        1.72886        0.00184
F          0.10357       -0.16895       -1.10805
H          0.11720       -0.01289        0.88853
