21
DICHLORODIISOPROPYL_ETHER.gamout	Energy:   -1230.7016596
O         51.95269       29.58459       -0.00420
C         50.70637       28.99939        0.35143
C         53.04796       28.74677       -0.35460
C         50.51825       29.03189        1.86559
C         49.59169       29.79641       -0.32628
C         53.24782       28.73624       -1.86720
C         54.30112       29.28746        0.33321
Cl        51.66022       27.92247        2.74743
Cl        51.89428       27.90252       -2.75245
H         50.67102       27.95489        0.00366
H         52.85677       27.71848       -0.00969
H         50.70942       30.04050        2.25088
H         49.50892       28.71143        2.14847
H         48.60404       29.37940       -0.08343
H         49.72745       29.76506       -1.41413
H         49.61986       30.84682       -0.00201
H         53.28647       29.76081       -2.25576
H         54.16279       28.19875       -2.14175
H         55.18147       28.67506        0.09193
H         54.15362       29.27759        1.41997
H         54.49422       30.32282        0.01715
