22
DICYCLOPENTADIENE.gamout	Energy:    -387.7093446
C          2.90514        1.09374        2.86570
C          3.20325        1.50440        1.37264
C          4.46102        2.43026        1.52635
C          1.91800        2.20902        0.85294
C          4.03011        1.85761        3.66688
C          1.49779        1.58088        3.10169
C          4.13391        3.16595        2.84880
C          5.59777        1.52946        1.99729
C          0.96943        2.18439        2.02926
C          5.34108        1.18864        3.27158
H          2.98738        0.01132        3.04536
H          3.44526        0.63567        0.74904
H          4.66762        3.04949        0.64436
H          2.11744        3.24134        0.51598
H          1.48996        1.68630       -0.01818
H          3.83370        1.94765        4.74233
H          0.98555        1.45280        4.05767
H          3.20281        3.74799        2.82342
H          4.95632        3.80898        3.18764
H          6.40289        1.15285        1.36585
H         -0.03210        2.61841        1.98984
H          5.89527        0.47982        3.88728
