35
DICYCLOHEXYL_SULFIDE.gamout	Energy:    -867.9294250
S          0.00001       -1.43559       -0.00001
C          1.42888       -0.27133       -0.13116
C         -1.42888       -0.27135        0.13114
C          1.77710        0.40335        1.20344
C          2.63782       -1.03796       -0.68758
C         -1.77711        0.40335       -1.20344
C         -2.63781       -1.03801        0.68756
C          2.99690        1.32765        1.06228
C          3.86665       -0.12476       -0.82218
C         -2.99692        1.32763       -1.06225
C         -3.86665       -0.12481        0.82220
C          4.21018        0.57622        0.49902
C         -4.21019        0.57619       -0.49898
H          1.14397        0.50016       -0.86364
H         -1.14397        0.50013        0.86363
H          1.98521       -0.38289        1.94729
H          0.91596        0.97245        1.58247
H          2.38280       -1.48543       -1.65855
H          2.87580       -1.87249       -0.00642
H         -1.98521       -0.38288       -1.94731
H         -0.91599        0.97247       -1.58246
H         -2.38277       -1.48550        1.65850
H         -2.87579       -1.87252        0.00637
H          3.23929        1.77544        2.03810
H          2.74262        2.16452        0.38905
H          3.66869        0.63684       -1.59640
H          4.72537       -0.71268       -1.18053
H         -3.23933        1.77545       -2.03805
H         -2.74263        2.16448       -0.38899
H         -3.66867        0.63677        1.59643
H         -4.72535       -0.71275        1.18055
H          5.05445        1.26770        0.35484
H          4.54378       -0.17638        1.23437
H         -5.05446        1.26767       -0.35478
H         -4.54380       -0.17640       -1.23435
