15
DIETHYL_SULFIDE.gamout	Energy:    -556.2497374
C          0.82548        2.54406        4.16596
S          1.16450        0.81927        3.63479
C          1.02447        1.03637        1.81671
C          0.87213        2.65886        5.68618
C          1.26757       -0.28408        1.09356
H          1.57501        3.20473        3.70400
H         -0.16530        2.83547        3.78546
H          0.01853        1.42186        1.58960
H          1.75800        1.79313        1.49900
H          1.86106        2.37900        6.07639
H          0.12076        2.00937        6.15760
H          0.66600        3.69492        5.99257
H          2.27304       -0.67578        1.30427
H          1.18001       -0.13985        0.00663
H          0.53332       -1.04457        1.39560
