16
DIETHYLAMINE.gamout	Energy:    -213.5069852
C         52.04050       10.05235        0.01063
N         50.83596        9.23828       -0.01116
C         51.06805        7.80322        0.01162
C         51.70387       11.53858       -0.00104
C         49.75444        7.03037       -0.00158
H         52.68723        9.82545        0.88692
H         52.63449        9.79685       -0.88204
H         50.21091        9.50853        0.74571
H         51.66202        7.54285       -0.87981
H         51.67563        7.48653        0.88813
H         52.61894       12.14726       -0.01483
H         51.09940       11.79034       -0.88381
H         51.12986       11.81788        0.89637
H         49.93697        5.94670       -0.01412
H         49.15640        7.25886        0.89456
H         49.15938        7.29973       -0.88532
