16
DIETHYL_DISULFIDE.gamout	Energy:    -954.2810293
C          0.09842        0.20139        0.10817
C          1.32612        1.10564        0.03614
S          1.06349        2.39613       -1.26097
S          2.86713        3.43587       -1.26101
C          2.60457        4.72631        0.03622
C          3.83225        5.63056        0.10818
H          0.25160       -0.56962        0.87779
H         -0.80566        0.76940        0.37213
H         -0.08227       -0.30593       -0.85070
H          2.22598        0.53515       -0.23061
H          1.50214        1.60585        0.99846
H          1.70468        5.29677       -0.23048
H          2.42865        4.22597        0.99849
H          3.67914        6.40156        0.87783
H          4.73637        5.06257        0.37205
H          4.01286        6.13791       -0.85068
