15
DIETHYL_ETHER.gamout	Energy:    -233.3571644
C          0.98711        2.77229        2.42835
C         -0.47321        2.47689        2.14501
O          1.78755        1.89433        1.66610
C          3.17608        2.07232        1.84506
C          3.91511        1.07269        0.97683
H          1.20862        2.64324        3.50672
H          1.23053        3.82306        2.17327
H         -1.11986        3.14820        2.72764
H         -0.71430        1.43882        2.41272
H         -0.69274        2.61943        1.07769
H          3.44044        1.93124        2.91247
H          3.46171        3.10946        1.57827
H          5.00141        1.18835        1.09962
H          3.66469        1.22507       -0.08225
H          3.63861        0.04619        1.25458
