26
DIETHYLENE_GLYCOL_MONOPROPYL_ETHER.gamout	Energy:    -501.3902586
O         -1.74966       -0.32042        0.00116
O          1.78936        0.31434        0.00090
O          5.34611       -0.23036       -0.00347
C         -0.57985        0.46480        0.00357
C         -2.94864        0.42861        0.00615
C          0.61750       -0.47125       -0.00161
C         -4.13496       -0.52462        0.00275
C          2.98396       -0.43540       -0.00284
C         -5.48093        0.20205        0.00841
C          4.15173        0.53814        0.00041
H         -0.54251        1.12142       -0.88617
H         -0.54085        1.11359        0.89897
H         -2.98238        1.09147       -0.88153
H         -2.98053        1.08251        0.90054
H          0.58015       -1.11928       -0.89698
H          0.58166       -1.12698        0.88819
H         -4.05398       -1.17240       -0.88376
H         -4.05155       -1.18120        0.88253
H          3.04148       -1.08957        0.88719
H          3.04044       -1.08250       -0.89809
H         -5.59423        0.84635       -0.87709
H         -6.31287       -0.51599        0.00603
H         -5.59151        0.83723        0.90082
H          4.08507        1.17917        0.89658
H          4.08399        1.18631       -0.89051
H          6.11112        0.35278       -0.00156
