19
DIETHYL_SULFATE.gamout	Energy:    -856.7399566
O          2.69714        0.36268        0.64017
S          1.21924        0.15008       -0.00165
O          0.92492        1.61560       -0.64105
O          1.30037       -0.74859       -1.14036
O          0.34415       -0.07715        1.13574
C          3.83409        0.41173       -0.26733
C          0.59059        2.70278        0.26708
C          5.07223        0.61592        0.57981
C          0.37394        3.93973       -0.57894
H          3.86893       -0.53272       -0.82604
H          3.68223        1.23849       -0.97669
H         -0.31227        2.42054        0.82434
H          1.41972        2.83556        0.97746
H          5.95525        0.64808       -0.07392
H          5.01755        1.55986        1.13897
H          5.19596       -0.20955        1.29345
H          0.10770        4.78164        0.07570
H          1.28468        4.20343       -1.13362
H         -0.44291        3.78396       -1.29625
