35
DIETHYLCARBAMAZINE.gamout	Energy:    -632.3787552
O         -0.89573        0.00608       -1.84396
N          0.33098       -0.61421       -0.01552
N          3.09882        0.03131        0.34674
N         -1.86259        0.22280        0.22661
C          0.82208       -0.16396        1.28278
C          1.36046       -1.23094       -0.84569
C          2.07339        0.70739        1.12620
C          2.59516       -0.33973       -0.97186
C         -0.81307       -0.12447       -0.62566
C          4.33523        0.78619        0.28076
C         -2.91881        1.05032       -0.37056
C         -2.29708       -0.70427        1.27804
C         -2.46304        2.47736       -0.66802
C         -3.26039       -1.79419        0.79372
H          1.06989       -1.03783        1.90895
H          0.04701        0.42004        1.78674
H          0.93302       -1.42406       -1.83418
H          1.65681       -2.18801       -0.38447
H          1.77927        1.67553        0.65930
H          2.47365        0.93465        2.12571
H          3.38235       -0.88538       -1.51274
H          2.33422        0.55733       -1.57532
H          5.09931        0.20496       -0.25453
H          4.70678        0.98573        1.29600
H          4.21898        1.76240       -0.24058
H         -3.74318        1.07792        0.35493
H         -3.30526        0.58438       -1.29064
H         -2.77064       -0.11204        2.07724
H         -1.41879       -1.18221        1.72142
H         -1.65081        2.48179       -1.40559
H         -2.11417        2.97595        0.24789
H         -3.30061        3.05858       -1.08091
H         -2.79339       -2.41054        0.01197
H         -4.18693       -1.36845        0.38486
H         -3.53225       -2.45172        1.63272
