23
DIETHYL_MALONATE.gamout	Energy:    -574.1956250
C          0.33362       29.89252       -0.49776
C          1.20554       28.97437        0.34110
O          2.43652       29.62459        0.73089
C          3.45769       29.60568       -0.13653
C          4.62984       30.41375        0.38487
O          3.45478       29.01041       -1.18713
C          4.41588       31.91062        0.22586
O          5.40373       32.59173        0.82762
O          3.49779       32.42204       -0.36757
C          6.04226       34.52156       -0.54489
C          5.38084       34.03521        0.73307
H         -0.62062       29.39034       -0.71432
H          0.12308       30.82745        0.03875
H          0.82106       30.13621       -1.45004
H          1.45399       28.05219       -0.19971
H          0.72173       28.71906        1.29144
H          4.80671       30.19563        1.44686
H          5.53038       30.13321       -0.17680
H          6.07268       35.62077       -0.54662
H          7.07279       34.14738       -0.61640
H          5.48014       34.19321       -1.42845
H          4.33872       34.37215        0.79882
H          5.92850       34.37298        1.62087
