29
DIETHYLENE_GLYCOL_DIETHYL_ETHER.gamout	Energy:    -540.6417154
O         -0.00004        0.31979       -0.00000
O          3.54631       -0.27466       -0.00195
O         -3.54636       -0.27477        0.00194
C          1.18183       -0.45039       -0.00059
C         -1.18187       -0.45043        0.00058
C          2.36846        0.49922       -0.00136
C         -2.36853        0.49914        0.00134
C          4.73869        0.48733       -0.00285
C         -4.73876        0.48719        0.00286
C          5.92833       -0.45457       -0.00329
C         -5.92837       -0.45474        0.00333
H          1.22668       -1.10145        0.89225
H          1.22567       -1.10162       -0.89336
H         -1.22670       -1.10149       -0.89226
H         -1.22570       -1.10166        0.89334
H          2.32371        1.15108        0.89159
H          2.32271        1.15092       -0.89436
H         -2.32381        1.15100       -0.89160
H         -2.32280        1.15084        0.89435
H          4.76065        1.14461       -0.89394
H          4.76169        1.14513        0.88782
H         -4.76073        1.14448        0.89394
H         -4.76179        1.14498       -0.88782
H          6.86723        0.11700       -0.00402
H          5.91092       -1.09663        0.88842
H          5.90983       -1.09715       -0.89460
H         -6.86729        0.11681        0.00411
H         -5.91099       -1.09680       -0.88838
H         -5.90983       -1.09732        0.89464
