9
DIFLUOROMETHYL_TRIFLUOROMETHYL_ETHER.gamout	Energy:    -650.5581773
C         -0.82318        1.92230       -0.86659
C         -1.55036        4.11981       -1.36434
O         -1.62807        2.97828       -0.57130
F         -2.77130        4.66991       -1.36147
F         -0.69230        4.99795       -0.80753
H         -1.23349        3.90122       -2.39348
F          0.47758        2.23484       -0.77313
F         -1.03183        1.47168       -2.11846
F         -1.09822        0.95095       -0.01093
