18
DIGLYCOLAMINE.gamout	Energy:    -363.7714729
O          0.56013        0.52409       -0.22462
O         -3.03723        0.44682       -0.20854
N          4.06283       -0.55786       -0.01519
C          1.62228       -0.38509       -0.02829
C         -0.72112       -0.04901       -0.09440
C          2.94149        0.36638       -0.16050
C         -1.75318        1.03760       -0.35041
H          1.55887       -0.85526        0.97030
H          1.57070       -1.19806       -0.78033
H         -0.86088       -0.87280       -0.81998
H         -0.86517       -0.46849        0.91908
H          2.93040        0.92511       -1.11551
H          2.99747        1.11389        0.64399
H         -1.60534        1.44506       -1.36560
H         -1.60231        1.85741        0.37317
H          4.94072       -0.06879        0.12725
H          4.17446       -1.15300       -0.83219
H         -3.72065        1.10661       -0.36063
