20
DIHYDROGEN_CITRATE-1.gamout	Energy:    -758.6761219
O         -0.38495       -0.36967        1.51353
O          0.66018       -2.51226        0.63381
O          1.01304       -1.72710       -1.46698
O          2.54609        0.20852        0.94370
O         -2.23975        1.89039       -0.67367
O          2.85883        1.65913       -0.72379
O         -3.62695        0.43542        0.29819
C         -0.17315       -0.34050        0.12045
C          0.60254        0.93152       -0.28261
C         -1.54870       -0.41129       -0.62108
C          0.59516       -1.66959       -0.29573
C          2.09995        0.96571       -0.07533
C         -2.57168        0.63316       -0.26347
H          0.19715        1.77789        0.29483
H          0.44939        1.17183       -1.33968
H         -1.35487       -0.36813       -1.70285
H         -2.00241       -1.38007       -0.38542
H         -0.05761       -1.27464        1.73816
H         -2.97023        2.46670       -0.40024
H          3.51206        0.28487        0.94687
