14
DIHYDROPYRAN.gamout	Energy:    -270.1978481
C          2.79904        3.36992        1.21179
C          3.53594        2.16673        1.81975
C          1.39024        2.97259        0.84690
C          3.21772        0.90459        1.02273
C          1.00158        1.68857        0.80914
O          1.81584        0.61777        1.01755
H          3.34132        3.74695        0.32611
H          2.78163        4.20606        1.92951
H          3.21074        2.01588        2.86091
H          4.62464        2.32529        1.83576
H          0.64350        3.74092        0.64252
H          3.70206        0.01550        1.44510
H          3.54899        1.02003       -0.02469
H         -0.02554        1.37992        0.61043
