28
DIISOBUTYLAMINE.gamout	Energy:    -370.5420774
C          0.17262       31.32301       -0.54526
C          1.61452       31.28929       -0.02014
C          2.13566       32.70747        0.24668
C          1.75507       30.42303        1.24080
N          1.42031       29.02581        1.01424
C          1.65609       28.15316        2.15491
C          1.33548       26.68202        1.84745
C          2.22577       26.12184        0.73120
C          1.42926       25.83372        3.12172
H          0.09447       31.97021       -1.43061
H         -0.18379       30.32585       -0.84143
H         -0.51537       31.71953        0.21925
H          2.24859       30.82482       -0.79368
H          3.18262       32.69414        0.58445
H          2.08391       33.32512       -0.66163
H          1.53822       33.20911        1.02465
H          2.80296       30.45962        1.57956
H          1.15264       30.87966        2.05916
H          0.45706       28.93194        0.70294
H          2.71991       28.24073        2.43564
H          1.07572       28.46668        3.05022
H          0.28641       26.64416        1.49950
H          1.92309       25.09968        0.46060
H          2.17681       26.75171       -0.16586
H          3.27698       26.08398        1.05954
H          1.16703       24.78553        2.91841
H          0.75282       26.20539        3.90578
H          2.45350       25.84746        3.52741
