21
DIISOPROPYL_ETHER.gamout	Energy:    -311.8786621
O          2.90298        2.22472        1.79146
C          1.76689        1.45713        2.17686
C          3.96618        1.57653        1.09936
C          0.78465        2.44227        2.79615
C          2.11473        0.32108        3.14122
C          5.08381        2.60458        0.99237
C          3.54147        1.05139       -0.27370
H          1.29835        1.02074        1.27512
H          4.33014        0.72664        1.70466
H          1.20936        2.88085        3.71083
H         -0.15380        1.93399        3.05518
H          0.56089        3.25435        2.09262
H          1.19363       -0.17901        3.47272
H          2.63435        0.71516        4.02718
H          2.74949       -0.44369        2.67452
H          4.75394        3.46401        0.39064
H          5.96917        2.16320        0.51538
H          5.36567        2.96730        1.98899
H          3.11609        1.86662       -0.87750
H          2.79861        0.24565       -0.20208
H          4.41412        0.64445       -0.80423
