22
DIISOPROPYL_KETONE.gamout	Energy:    -349.9454394
C          1.29769        0.14804        0.46926
C          1.84274       -1.26545        0.76799
C          2.32662        1.01289       -0.26286
C         -0.00000       -0.00001       -0.32972
O          0.00000       -0.00003       -1.54413
C         -1.29770       -0.14804        0.46927
C         -1.84273        1.26546        0.76801
C         -2.32663       -1.01287       -0.26287
H          1.04325        0.61711        1.43444
H          1.11462       -1.88289        1.31356
H          2.09681       -1.78235       -0.16874
H          2.75364       -1.19853        1.38002
H          2.58874        0.56581       -1.23099
H          1.93505        2.02139       -0.45635
H          3.24277        1.10900        0.33706
H         -1.04326       -0.61711        1.43443
H         -2.75362        1.19854        1.38004
H         -1.11460        1.88288        1.31359
H         -2.09680        1.78238       -0.16872
H         -1.93507       -2.02136       -0.45639
H         -3.24279       -1.10898        0.33702
H         -2.58872       -0.56576       -1.23100
