33
DIISOPENTYL_SULFIDE.gamout	Energy:    -791.8016862
S          0.03514        0.82841       -0.19577
C          3.32278        3.19648        1.08521
C         -2.96917        3.73858        0.53925
C          2.26784        2.53479        0.17434
C         -2.04579        2.51789        0.72949
C          1.31451        1.57698        0.89044
C         -1.11459        2.23806       -0.45121
C          4.08911        4.27450        0.30676
C          4.28864        2.17508        1.70207
C         -3.73209        4.03718        1.83649
C         -3.93807        3.56475       -0.63872
H          2.78444        3.69687        1.91055
H         -2.32503        4.61016        0.32128
H          2.77440        1.99270       -0.64063
H          1.68101        3.33060       -0.31020
H         -2.65661        1.62099        0.92411
H         -1.43978        2.67592        1.63536
H          1.85474        0.71081        1.29598
H          0.82250        2.07211        1.74102
H         -1.68582        1.96138       -1.34745
H         -0.52981        3.13269       -0.71192
H          4.82321        4.78568        0.94663
H          4.63662        3.82808       -0.53846
H          3.40658        5.03517       -0.10003
H          3.77136        1.44552        2.34035
H          4.81742        1.61731        0.91261
H          5.04652        2.67600        2.32160
H         -4.38461        3.19215        2.10826
H         -3.04369        4.21122        2.67666
H         -4.36804        4.92798        1.72904
H         -3.41176        3.43881       -1.59501
H         -4.59485        4.44119       -0.73880
H         -4.58101        2.68252       -0.48826
