27
DIISOBUTYL_ETHER.gamout	Energy:    -390.3934484
O         -0.04166       -0.05947       -0.31679
C          1.83389       -1.57131       -0.34556
C         -2.09399        1.20312       -0.34459
C          1.36846       -0.11558       -0.31812
C         -0.56681        1.25048       -0.32448
C          3.36108       -1.63636       -0.46736
C          1.32848       -2.34958        0.87507
C         -2.66452        2.62111       -0.47167
C         -2.65315        0.47602        0.88401
H          1.39407       -2.02401       -1.25051
H         -2.37988        0.63150       -1.24390
H          1.76468        0.42547       -1.19993
H          1.76847        0.39366        0.58317
H         -0.19351        1.80142       -1.21017
H         -0.21756        1.80378        0.57201
H          3.72165       -1.10877       -1.36312
H          3.70341       -2.67897       -0.53267
H          3.84833       -1.18178        0.41002
H          1.64713       -3.40096        0.82687
H          0.23341       -2.32340        0.93654
H          1.73223       -1.91895        1.80567
H         -2.29296        3.13242       -1.37248
H         -3.76196        2.59672       -0.52972
H         -2.39182        3.23603        0.40083
H         -3.75047        0.42037        0.83901
H         -2.25917       -0.54561        0.95282
H         -2.38145        1.00919        1.80938
