21
DIISOPROPYL_SULFIDE.gamout	Energy:    -634.7691947
S          0.00106       -0.93316       -0.00188
C         -1.44270        0.22704        0.03226
C          1.44013        0.23297       -0.03077
C         -1.65260        0.94028       -1.30440
C         -2.67440       -0.57388        0.45882
C          1.64909        0.93817        1.31036
C          2.67438       -0.56030       -0.46415
H         -1.22559        0.97294        0.81130
H          1.21870        0.98344       -0.80416
H         -2.49119        1.65109       -1.22426
H         -0.76433        1.50713       -1.61347
H         -1.88915        0.21645       -2.09755
H         -3.55596        0.08412        0.49421
H         -2.53646       -1.02270        1.45136
H         -2.88921       -1.38140       -0.25731
H          2.48352        1.65420        1.23329
H          0.75833        1.49790        1.62525
H          1.89133        0.21021        2.09799
H          3.55347        0.10118       -0.49599
H          2.53704       -1.00306       -1.45947
H          2.89293       -1.37172        0.24642
