12
DIMETHYLCARBAMATE-1.gamout	Energy:    -322.8075925
C         -5.83744        0.56027        0.07884
C         -3.39984        0.58681        0.02376
N         -4.60904       -0.17716        0.11596
H         -3.35391        1.20116       -0.90585
H         -2.55488       -0.11028        0.02353
H         -3.29367        1.29271        0.87420
H         -5.93374        1.17916       -0.84429
H         -5.92629        1.25814        0.93867
H         -6.66544       -0.15662        0.10705
C         -4.59808       -1.61709       -0.09034
O         -3.46098       -2.13967       -0.18590
O         -5.72719       -2.16333       -0.13553
