10
DIMETHYLACETYLENE.gamout	Energy:    -155.7652806
C          2.73351        2.64593        1.04739
C          3.89817        3.52858        1.03094
C          1.76697        1.91296        1.06155
C          0.60336        1.02903        1.07924
H          4.69774        3.14578        1.68421
H          3.63730        4.53987        1.37995
H          4.31324        3.62252        0.01533
H         -0.13650        1.32778        0.32030
H          0.10225        1.04820        2.05963
H          0.89169       -0.01336        0.87207
