11
DIMETHYLCHLOROSILANE.gamout	Energy:    -829.7604738
Cl         1.40186       -0.54444        0.27882
Si         3.39435        0.11392       -0.01380
C          3.67823        0.38507       -1.84889
C          3.67042        1.66681        1.00386
H          3.01702        1.16910       -2.24728
H          4.72148        0.69631       -2.02050
H          3.49899       -0.53753       -2.42000
H          3.00838        2.48334        0.67906
H          3.48445        1.47937        2.07153
H          4.71342        2.00483        0.89246
H          4.25693       -0.99132        0.48510
