10
DIMETHYL_DISULFIDE.gamout	Energy:    -875.7603190
S          1.49748        2.48210        0.32815
C          0.73425        2.21089        1.97032
S          2.46961        0.67365       -0.04073
C          4.10020        0.91511        0.75624
H          0.06216        1.34375        1.94574
H          1.49627        2.08016        2.74952
H          0.15092        3.11804        2.18807
H          4.68186        0.00567        0.54363
H          4.61549        1.78455        0.32874
H          4.00071        1.02875        1.84360
