11
DIMETHYLDICHLOROSILANE.gamout	Energy:   -1289.2318127
Cl        -1.68524       -1.15997        0.00019
Cl         1.68583       -1.15925        0.00270
Si         0.00003        0.10039        0.00024
C          0.00100        1.11435       -1.57180
C         -0.00153        1.11962        1.56911
H          0.00190        0.46956       -2.46244
H         -0.89272        1.75637       -1.61097
H          0.89445        1.75684       -1.60962
H         -0.89532        1.76180        1.60457
H         -0.00212        0.47804        2.46206
H          0.89182        1.76230        1.60617
