24
DIPHENYLACETYLENE.gamout	Energy:    -538.7551151
C          5.28081        2.19910        0.41426
C          6.49981        2.18061        0.41508
C          7.92802        2.15733        0.41615
C          3.85261        2.22173        0.41394
C          8.66815        3.35254        0.54856
C          8.62632        0.93723        0.28472
C          3.15380        3.44146        0.54622
C          3.11300        1.02620        0.28142
C         10.06217        3.32285        0.54910
C         10.02044        0.91812        0.28635
C          1.75967        3.45988        0.54531
C          1.71897        1.05522        0.28167
C         10.74438        2.10821        0.41832
C          1.03624        2.26947        0.41329
H          8.13643        4.29869        0.65067
H          8.06183        0.01032        0.18180
H          3.71789        4.36861        0.64918
H          3.64514        0.08035        0.17873
H         10.62168        4.25455        0.65242
H         10.54697       -0.03266        0.18384
H          1.23269        4.41035        0.64841
H          1.15983        0.12331        0.17823
H         11.83546        2.08929        0.41914
H         -0.05484        2.28792        0.41293
