28
DIPHENYL_TRIFLUOROETHANE.gamout	Energy:    -838.6368217
F         -1.17027       -2.75335        0.24778
F          0.98925       -2.80097        0.08091
F         -0.21042       -2.00822       -1.54595
C         -0.03440       -0.68097        0.46562
C         -1.27764        0.15265        0.14113
C          1.28492        0.05321        0.24357
C         -0.10195       -2.06076       -0.20117
C         -1.34847        0.95308       -1.00831
C          1.81453        0.78746        1.31626
C         -2.37637        0.12549        1.01253
C          1.97746        0.06006       -0.97751
C         -2.49685        1.69784       -1.28519
C          2.99545        1.51828        1.17568
C         -3.52495        0.87261        0.73866
C          3.16126        0.79065       -1.11909
C         -3.58845        1.66190       -0.41289
C          3.67438        1.52331       -0.04614
H         -0.08733       -0.92592        1.53598
H         -0.49993        1.00245       -1.68949
H          1.29233        0.78757        2.27534
H         -2.33529       -0.49242        1.91147
H          1.60482       -0.51289       -1.82510
H         -2.53552        2.31347       -2.18561
H          3.38835        2.08005        2.02500
H         -4.36990        0.84010        1.42881
H          3.68672        0.78036       -2.07567
H         -4.48285        2.24894       -0.62830
H          4.59942        2.09104       -0.15995
