23
DIPHENYL_ETHER.gamout	Energy:    -537.8224604
O          4.65244        2.07170        0.49509
C          3.43007        1.98164        1.12252
C          5.83435        2.06187        1.20146
C          3.15073        2.65020        2.32104
C          2.43153        1.25558        0.46467
C          6.04064        1.23217        2.31074
C          6.87159        2.86233        0.71067
C          1.86447        2.57425        2.86214
C          1.14802        1.19572        1.01235
C          7.29220        1.22070        2.93263
C          8.11989        2.83406        1.33668
C          0.85865        1.84999        2.21441
C          8.33594        2.01782        2.45192
H          3.93152        3.22452        2.81999
H          2.67562        0.75061       -0.47052
H          5.23112        0.60176        2.67907
H          6.68400        3.49268       -0.15920
H          1.64757        3.09598        3.79639
H          0.37040        0.62889        0.49666
H          7.45200        0.57342        3.79729
H          8.92765        3.45907        0.95087
H         -0.14367        1.79803        2.64199
H          9.31070        2.00078        2.94166
