23
DIPROPYLENE_GLYCOL.gamout	Energy:    -462.1400886
C          1.19987        0.05831        0.02840
C          0.54228        1.11986        0.90923
C         -0.97831        1.06962        0.85567
O         -1.50298        2.05148        1.72412
C         -2.91383        2.10592        1.74697
C         -3.35186        3.20329        2.70682
C         -4.87121        3.31338        2.82758
O          2.61692        0.14296        0.02278
O         -5.28404        4.37604        3.67357
H          0.87073       -0.95274        0.33365
H          0.89639        0.19339       -1.02047
H          0.88585        2.11629        0.59463
H          0.85967        0.98449        1.95682
H         -1.34650        0.06684        1.15257
H         -1.33209        1.25222       -0.17880
H         -3.32528        1.12548        2.06111
H         -3.30081        2.30835        0.72811
H         -2.94346        4.16727        2.36943
H         -2.91331        2.99545        3.69729
H         -5.30045        2.35302        3.16982
H         -5.31604        3.53408        1.84581
H          2.95337        0.01004        0.91641
H         -4.94276        4.23319        4.56382
