22
DIPROPYL_KETONE.gamout	Energy:    -349.9466067
C          1.82062        1.60784        1.65570
C          3.27390        1.58748        2.11804
C          4.22300        2.52628        1.38859
O          3.65329        0.85122        3.00586
C          0.82897        0.93667        2.60866
C          5.70212        2.32416        1.71079
C          0.59083        1.72458        3.89976
C          6.61056        3.31745        0.98368
H          1.81070        1.10426        0.67202
H          1.53011        2.65135        1.44574
H          4.03546        2.43113        0.30438
H          3.90757        3.55601        1.63874
H          1.20224       -0.06806        2.85486
H         -0.12610        0.80029        2.07824
H          5.84440        2.40493        2.79832
H          5.98596        1.29295        1.45086
H         -0.14267        1.21616        4.54189
H          1.52111        1.83022        4.47473
H          0.20349        2.73319        3.68461
H          7.66677        3.14277        1.23274
H          6.36989        4.35616        1.25859
H          6.50693        3.23105       -0.10935
