11
DIVINYL_ETHER.gamout	Energy:    -230.9013466
C          1.05547        2.29222        1.57763
C          1.57837        3.46691        1.94060
O          1.69511        1.11190        1.31946
C          3.00042        0.98266        0.93482
C          3.78654        1.87254        0.32237
H         -0.02312        2.14362        1.50462
H          0.89509        4.28585        2.16104
H          2.64575        3.64542        2.05072
H          3.34257       -0.03135        1.14850
H          4.79140        1.56027        0.04146
H          3.47377        2.88283        0.06784
