13
DMP-1.gamout	Energy:    -721.6267281
C         -3.21362       -1.10154        1.80387
O         -2.39411        0.02678        2.01863
H         -3.95143       -0.91021        1.00786
H         -2.61164       -1.98273        1.51811
H         -3.73864       -1.31741        2.74824
P         -1.73130        0.80475        0.69795
O         -0.53970       -0.36186        0.39057
C          0.28177       -0.16198       -0.73314
H         -0.31448       -0.04194       -1.65567
H          0.92700       -1.04894       -0.84036
H          0.92394        0.73082       -0.61314
O         -2.71847        0.77281       -0.45502
O         -1.06822        2.06594        1.19500
