18
DMPY+1.gamout	Energy:    -326.8636499
C         -2.21037        0.03691       -0.00110
N         -0.73966       -0.08637        0.00243
H         -2.52499        0.57512       -0.90284
H         -2.52826        0.59045        0.89037
H         -2.65608       -0.96089        0.00656
C         -0.14566       -1.29887        0.01003
C          0.01082        1.04169       -0.00640
C          1.23262       -1.41531        0.01250
H         -0.80397       -2.16548        0.01589
C          1.38756        0.97598       -0.01190
H         -0.53287        1.98539       -0.00780
C          2.04297       -0.27026       -0.00016
H          1.67300       -2.41097        0.02173
H          1.95675        1.90454       -0.02576
C          3.53607       -0.35103        0.00015
H          3.89509       -1.38577        0.02067
H          3.94856        0.18197        0.87110
H          3.94335        0.14370       -0.89559
