18
E-2HEA+1.gamout	Energy:    -289.0102988
C         -6.81769        0.65791       -0.81418
N         -8.09197       -0.11613       -0.54182
C         -8.42074       -1.17090       -1.56046
H         -8.87187        0.54899       -0.47043
C         -9.71667       -1.90074       -1.21356
H         -7.58078       -1.87528       -1.59064
H         -8.50097       -0.67807       -2.53669
O         -9.86089       -2.87180       -2.21300
H         -9.63767       -2.35097       -0.20429
H        -10.56270       -1.18638       -1.20152
H        -10.66779       -3.38823       -2.09675
H         -8.02033       -0.55022        0.38661
C         -6.55309        1.67694        0.27809
H         -6.94671        1.12558       -1.79800
H         -6.01693       -0.08813       -0.88988
H         -7.35614        2.42578        0.34366
H         -5.62236        2.21071        0.04694
H         -6.42480        1.19963        1.26072
