11
EA+1.gamout	Energy:    -135.3542521
C         13.67179       -4.65114       -0.52724
C         14.72993       -4.18344        0.45260
H         14.49803       -3.20403        0.88911
N         16.07618       -4.02237       -0.24322
H         14.89695       -4.89969        1.26653
H         13.91489       -5.63513       -0.95426
H         12.71664       -4.74943        0.00582
H         16.02597       -3.32489       -0.99691
H         16.38343       -4.90603       -0.67001
H         16.81035       -3.72165        0.40962
H         13.52154       -3.93010       -1.34404
