22
EMMIM+1.gamout	Energy:    -383.3670478
C         -1.89148       -0.61089        0.05555
C         -0.75361        0.39391        0.12207
H         -2.81709       -0.07445       -0.18660
H         -2.04289       -1.11752        1.01798
H         -1.72532       -1.35881       -0.73134
N          0.55425       -0.22419        0.43061
H         -0.95240        1.14851        0.89520
H         -0.65152        0.91939       -0.83746
N          2.68578       -0.41500        0.81440
C          2.13931       -1.67805        0.92062
C          0.80386       -1.55875        0.68048
C          4.10302       -0.09983        1.00117
H          4.62811       -1.02530        1.25000
H          4.22874        0.61379        1.82443
H          4.52799        0.31589        0.07957
H          2.73523       -2.55158        1.15703
H          0.02853       -2.31261        0.66968
C          1.71006        0.46270        0.51458
C          1.86448        1.92381        0.30732
H          1.23066        2.49033        1.00664
H          1.57074        2.20981       -0.71449
H          2.90262        2.23476        0.46067
