27
EMPIP+1.gamout	Energy:    -369.7144866
C         -2.37092       -2.06112       -0.85986
C         -2.58430        0.43879       -0.64863
C         -1.08293       -2.00474       -0.04605
C         -1.29166        0.45799        0.15562
N         -0.34209       -0.68461       -0.17540
H         -0.38866       -2.79512       -0.34407
H         -1.29927       -2.11998        1.02333
H         -1.51076        0.35812        1.22551
H         -0.72976        1.38687        0.00778
C          0.79680       -0.61998        0.83437
C          1.88106       -1.67730        0.70271
H          2.42672       -1.62363       -0.24741
H          1.50422       -2.69707        0.84710
H          2.61114       -1.48863        1.50057
H          1.22165        0.38587        0.73100
H          0.31985       -0.68215        1.81905
C         -3.30941       -0.90268       -0.51707
H         -2.84456       -3.02615       -0.63504
H         -2.15096       -2.08050       -1.93774
H         -3.67850       -1.02154        0.51420
H         -4.18941       -0.92270       -1.16983
H         -2.39546        0.68106       -1.70469
H         -3.20702        1.25710       -0.26311
C          0.20033       -0.51599       -1.55692
H         -0.61851       -0.45915       -2.27452
H          0.78489        0.40748       -1.59349
H          0.83243       -1.37198       -1.79911
