19
EPSILON-CAPROLACTAM.gamout	Energy:    -364.7895586
C         -6.23099        0.42687        0.38619
C         -5.05254        1.39033        0.71900
C         -5.84525       -0.87781       -0.33139
C         -3.67995        0.72560        0.75359
N         -3.21789        0.27455       -0.45395
O         -3.02567        0.60236        1.78035
C         -3.98834        0.28658       -1.68915
C         -5.16597       -0.71364       -1.70007
H         -6.97953        0.96922       -0.21245
H         -6.73172        0.15277        1.32559
H         -5.19641        1.84702        1.70393
H         -5.02008        2.21140       -0.01371
H         -6.75003       -1.49141       -0.45653
H         -5.17923       -1.45622        0.32743
H         -2.32384       -0.19950       -0.42243
H         -3.29809        0.07685       -2.51627
H         -4.36848        1.30459       -1.86104
H         -5.89771       -0.37629       -2.45204
H         -4.80885       -1.70097       -2.03156
