65
ERUCATE-1.gamout	Energy:   -1012.2095369
O          9.45732       -7.61889        0.14828
O          7.78081       -7.72672        1.66438
C          0.89774       -2.59702       -1.66050
C          1.66622       -3.53156       -0.72044
C         -0.50691       -2.23808       -1.16385
C          3.07975       -3.87856       -1.20282
C         -1.27066       -1.29339       -2.09444
C          3.85211       -4.80976       -0.26285
C         -2.69093       -0.97523       -1.62095
C          5.26551       -5.14575       -0.75230
C         -3.40622        4.72693        1.54331
C         -3.61061        4.30087        0.08623
C         -3.47330       -0.10516       -2.61943
C         -2.71791        6.08825        1.70290
C         -4.36708        2.97849       -0.07338
C          6.05054       -6.07920        0.17724
C         -4.62890        2.61270       -1.54493
C         -2.50699        6.50855        3.16221
C         -4.88184        0.16117       -2.17241
C         -5.37600        1.31923       -1.71128
C          7.46034       -6.40169       -0.32082
C         -1.79524        7.85673        3.32623
C         -1.57979        8.26486        4.78532
C          8.31480       -7.34615        0.59344
H          1.47652       -1.66767       -1.80420
H          0.82166       -3.06261       -2.65878
H          1.72984       -3.06631        0.27877
H          1.09282       -4.46495       -0.58288
H         -0.42816       -1.78462       -0.16044
H         -1.09607       -3.16207       -1.03225
H          3.65220       -2.94404       -1.33991
H          3.01669       -4.34253       -2.20314
H         -0.70844       -0.35074       -2.21046
H         -1.32486       -1.73784       -3.10297
H          3.91388       -4.34670        0.73778
H          3.28201       -5.74577       -0.12670
H         -2.65805       -0.46776       -0.64301
H         -3.23945       -1.91807       -1.45566
H          5.82779       -4.20410       -0.88932
H          5.19504       -5.60197       -1.75687
H         -2.81544        3.96040        2.07418
H         -4.38794        4.75521        2.04846
H         -2.63251        4.21580       -0.41817
H         -4.15933        5.09407       -0.45052
H         -1.74105        6.06103        1.18887
H         -3.31304        6.85815        1.18129
H         -2.93298        0.83995       -2.77578
H         -3.48551       -0.62387       -3.59428
H         -3.80147        2.16472        0.40832
H         -5.32811        3.04024        0.46496
H          6.11976       -5.63223        1.18249
H          5.49514       -7.02058        0.31868
H         -5.20199        3.43453       -2.01040
H         -3.66862        2.56348       -2.07871
H         -1.92495        5.72725        3.68150
H         -3.48299        6.55145        3.67782
H         -5.55651       -0.69986       -2.18968
H         -6.42244        1.32112       -1.39073
H          8.03868       -5.47070       -0.45764
H          7.41516       -6.86901       -1.32052
H         -0.82081        7.81347        2.81081
H         -2.37692        8.63867        2.80884
H         -1.06260        9.23324        4.86026
H         -0.97075        7.52114        5.32274
H         -2.53695        8.35817        5.32233
