18
ERYTHRITOL.gamout	Energy:    -458.7805661
O          1.17000        1.54123        5.49818
C          0.91761        1.17902        4.14054
C          2.11809        1.66982        3.33962
O          3.32189        1.14802        3.89311
C          2.06057        1.25546        1.86473
O          0.91447        1.90535        1.32642
C          3.33569        1.64788        1.09757
O          4.43458        0.81238        1.38316
H          0.52563        1.13079        6.08304
H          0.83048        0.08300        4.04026
H          0.00006        1.65222        3.76002
H          2.13681        2.77433        3.38288
H          3.26277        1.22656        4.85446
H          1.95522        0.15624        1.80846
H          0.79711        1.65097        0.40477
H          3.13671        1.55037        0.01849
H          3.56506        2.71247        1.29321
H          4.52582        0.77397        2.34715
