9
ETHANOL.gamout	Energy:    -154.8472836
C          1.13115        0.90333        0.97049
C          1.82005        2.13551        1.52688
O          3.20427        1.84121        1.68702
H          0.05662        1.09394        0.83487
H          1.25253        0.05296        1.65646
H          1.56294        0.62675       -0.00205
H          1.68325        2.98918        0.83792
H          1.37054        2.41607        2.49721
H          3.66474        2.60953        2.03989
