9
ETHANOL_GAUCHE.gamout	Energy:    -154.8468934
C          1.08276        0.89240        0.96037
C          1.91932        2.05073        1.49046
O          3.29478        1.72221        1.64307
H          0.02148        1.17903        0.90019
H          1.17368        0.01636        1.61812
H          1.40946        0.60041       -0.05051
H          1.80203        2.93693        0.84022
H          1.57968        2.33821        2.49564
H          3.66783        1.47889        0.78782
