9
ETHANETHIOL.gamout	Energy:    -477.7358308
C          0.91978        0.93816        1.64415
C          2.06157        1.93363        1.81392
S          3.70579        1.30910        1.26356
H         -0.01825        1.36515        2.03416
H          0.76193        0.69252        0.58353
H          1.12596        0.00229        2.18177
H          1.84975        2.87800        1.29336
H          2.21286        2.17647        2.87559
H          3.38157        1.11648       -0.03653
