9
ETHANOL_ANTI.gamout	Energy:    -154.8472838
C          1.13081        0.90316        0.97037
C          1.82010        2.13544        1.52687
O          3.20453        1.84140        1.68713
H          0.05626        1.09400        0.83479
H          1.25204        0.05269        1.65629
H          1.56254        0.62652       -0.00222
H          1.68338        2.98918        0.83793
H          1.37066        2.41612        2.49725
H          3.66508        2.60977        2.04001
