21
ETHYL_BENZOATE.gamout	Energy:    -498.8200738
C          0.75796        0.70122       -0.00115
C         -0.64801        0.19558       -0.00013
C         -1.68733        1.13935        0.00233
C         -3.01655        0.71814        0.00260
C         -3.31753       -0.64894        0.00127
C         -2.28509       -1.59297       -0.00130
C         -0.95300       -1.17558       -0.00354
O          1.06049        1.87563       -0.00327
O          1.67049       -0.28829        0.00125
C          3.05706        0.10536       -0.00132
C          3.90202       -1.15136        0.00338
H         -1.43018        2.19856        0.00382
H         -3.82098        1.45568        0.00413
H         -4.35817       -0.97852        0.00176
H         -2.51946       -2.65895       -0.00247
H         -0.14446       -1.90475       -0.00520
H          3.24302        0.72595       -0.88958
H          3.24414        0.73317        0.88159
H          4.96710       -0.88062        0.00165
H          3.70049       -1.75745        0.89780
H          3.69957       -1.76510       -0.88563
