13
ETHYL_VINYL_ETHER.gamout	Energy:    -232.1320450
C          3.78296        1.80402        1.27828
O          3.00593        0.93409        0.45464
C          1.72475        0.66179        0.79098
C          4.37332        1.09324        2.48905
C          1.01339        1.10821        1.83651
H          3.17234        2.67280        1.57454
H          4.58443        2.16675        0.62113
H          1.28118       -0.01194        0.05471
H          4.99731        1.79477        3.06323
H          3.59145        0.70358        3.15409
H          5.00362        0.25208        2.16799
H          1.40757        1.77146        2.60499
H         -0.02429        0.79281        1.93036
