23
ETHYL_ISOVALERATE.gamout	Energy:    -425.1046064
C          5.18176        2.49749        1.81309
C          3.97194        1.67446        1.41755
C          6.47859        2.11403        1.08589
O          2.99003        1.77424        2.33340
O          3.86545        1.02269        0.40428
C          6.96632        0.71944        1.50066
C          7.55786        3.17856        1.32106
C          1.75965        1.07432        2.05866
C          0.80959        1.32758        3.21093
H          4.91889        3.54807        1.60210
H          5.30412        2.43735        2.90554
H          6.25066        2.08634        0.00871
H          7.88201        0.44819        0.95611
H          7.19753        0.69016        2.57793
H          6.21084       -0.04864        1.28897
H          7.80954        3.26186        2.39039
H          8.48150        2.92433        0.78197
H          7.22808        4.16956        0.97543
H          1.35472        1.43439        1.10214
H          1.98466        0.00518        1.93815
H         -0.13811        0.80109        3.03184
H          1.23456        0.96279        4.15631
H          0.59566        2.40007        3.31643
