10
ETHYLACETYLENE.gamout	Energy:    -155.7548274
C          2.20575        0.79584        0.88800
C          1.00578        0.96645        0.88750
C          3.65867        0.61333        0.88881
C          4.44395        1.93676        0.89300
H         -0.05633        1.11228        0.88687
H          3.94268        0.01151        1.76799
H          3.94426        0.01622        0.00694
H          5.52537        1.73762        0.89334
H          4.20160        2.53740        0.00542
H          4.20007        2.53247        1.78346
