21
ETHYLCYCLOPENTANE.gamout	Energy:    -274.8007614
C          2.34373        2.40495       -0.25980
C          3.77939        1.84534       -0.28353
C          1.47644        1.27300        0.33162
C          3.84187        1.04371        1.03230
C          2.44597        0.39617        1.17875
H          2.32260        3.28745        0.40147
H          1.99967        2.73601       -1.25010
H          3.85853        1.13268       -1.12607
C          4.86182        2.91673       -0.45094
H          0.64305        1.66696        0.92973
H          1.02506        0.67623       -0.47462
H          4.65234        0.30230        1.05061
H          4.02638        1.74514        1.86354
H          2.13642        0.33546        2.23142
H          2.46007       -0.63585        0.79928
H          4.77291        3.63349        0.38369
H          4.65240        3.49072       -1.36870
C          6.29142        2.37311       -0.51350
H          6.40263        1.64643       -1.33337
H          6.57362        1.86715        0.42128
H          7.01585        3.18267       -0.68466
