15
ETHYLCYCLOPROPANE.gamout	Energy:    -196.2525374
C          2.06231        0.95954        1.05357
C          0.74075        1.34744        1.72506
C          3.13933        2.01712        1.20014
C          3.99136        2.07297        2.44478
C          4.59881        1.64796        1.12821
H          2.42979        0.01262        1.48239
H          1.88840        0.76258       -0.01800
H         -0.01899        0.56201        1.59888
H          0.33767        2.27642        1.29305
H          0.88203        1.51479        2.80340
H          2.87546        2.98704        0.76695
H          3.83343        1.30357        3.20399
H          4.26351        3.04840        2.85120
H          5.28714        2.33211        0.62923
H          4.85055        0.59276        1.00073
