18
ETHYLBENZENE.gamout	Energy:    -310.4611938
C          5.32709        0.79261        2.02763
C          4.94545        1.91024        1.04303
C          3.56139        2.47773        1.27362
C          3.36699        3.60613        2.08266
C          2.43577        1.88119        0.68706
C          2.08783        4.12390        2.30154
C          1.15507        2.39281        0.90185
C          0.97864        3.51739        1.70997
H          6.33623        0.41195        1.81262
H          4.62302       -0.04994        1.96159
H          5.31363        1.15840        3.06485
H          5.00893        1.52181        0.01433
H          5.68610        2.72213        1.11218
H          4.23072        4.08618        2.54624
H          2.56603        1.00324        0.05211
H          1.95153        5.00506        2.93250
H          0.28993        1.91708        0.43615
H         -0.01904        3.92015        1.87649
