12
ETHYL_SULFATE-1.gamout	Energy:    -777.7224931
C         -3.77832       -2.58686        2.67488
C         -2.61378       -2.73087        1.70121
H         -4.46139       -1.79006        2.33916
H         -4.34634       -3.52681        2.74190
H         -3.41308       -2.33280        3.68079
O         -1.76987       -3.77186        2.15663
H         -2.04526       -1.78569        1.63848
H         -2.98543       -2.96432        0.68717
S         -0.34779       -4.02698        1.21213
O          0.27103       -5.15160        1.94779
O         -0.86584       -4.35553       -0.14715
O          0.38468       -2.73061        1.29181
