10
ETHYLAMINE.gamout	Energy:    -134.9953400
C          0.01040       -0.56831        0.04598
C         -1.27196        0.25531       -0.01922
N          1.18837        0.29040       -0.07435
H          0.00524       -1.17874        0.97197
H          0.02941       -1.28084       -0.79398
H         -1.32493        0.96805        0.81973
H         -1.31327        0.82984       -0.95565
H         -2.15802       -0.39376        0.03943
H          1.22014        0.98831        0.66568
H          2.05466       -0.23919       -0.03369
