26
ETHYL_HEXANOATE.gamout	Energy:    -464.3402552
C          0.42347       -0.18603        0.47908
C          1.93442       -0.10147        0.25422
C          2.75777       -0.57341        1.45674
C          4.27196       -0.48553        1.22769
C          5.04793       -0.96612        2.45785
C          6.57772       -1.01584        2.59215
C          8.49288        0.13715       -0.35656
C          7.16079       -0.12501        0.32031
O          7.44678       -0.63738        1.63038
O          7.04470       -1.42083        3.62968
H         -0.13281        0.16010       -0.40356
H          0.11466        0.43331        1.33519
H          0.11133       -1.22058        0.68896
H          2.21333        0.93811        0.01268
H          2.20972       -0.70251       -0.62878
H          2.48499       -1.61437        1.70079
H          2.48813        0.02666        2.34255
H          4.52792        0.55687        0.98689
H          4.52758       -1.08658        0.34264
H          4.73896       -1.99505        2.70250
H          4.73688       -0.37557        3.33461
H          8.32543        0.53104       -1.36904
H          9.07607       -0.78987       -0.43235
H          9.07935        0.87061        0.21228
H          6.57622       -0.86049       -0.24858
H          6.57618        0.80135        0.39929
