19
ETHYL_ISOPROPYL_KETONE.gamout	Energy:    -310.6870303
C          0.50803       -1.73636        1.19207
C          1.98112       -1.76796        0.78208
C          0.34285       -1.59939        2.72052
C         -0.26109       -0.63080        0.45712
O          0.31332        0.21501       -0.19791
C         -1.78122       -0.64273        0.57406
C         -2.48414        0.36373       -0.33181
H          0.03170       -2.68791        0.89388
H          2.09125       -1.87975       -0.30450
H          2.48739       -0.83570        1.06841
H          2.49351       -2.60667        1.27401
H          0.72636       -0.62802        3.06779
H         -0.70443       -1.68980        3.03843
H          0.91489       -2.38726        3.23088
H         -2.12939       -1.67076        0.37652
H         -2.03826       -0.45512        1.63025
H         -3.57352        0.30384       -0.20222
H         -2.16203        1.38818       -0.10377
H         -2.24806        0.17534       -1.38786
