22
ETHYL_BUTYL_KETONE.gamout	Energy:    -349.9456247
C          4.00428        1.45841        0.95670
C          2.77649        1.79574        1.79592
C          1.86690        0.62902        2.15789
O          2.52240        2.93226        2.13874
C          5.02209        2.59413        0.81978
C          0.58778        1.03136        2.88336
C          5.83873        2.88752        2.08910
C          6.86138        1.80546        2.45079
H          4.46287        0.53897        1.35633
H          3.61916        1.16679       -0.03704
H          1.64516        0.07243        1.23091
H          2.46455       -0.07084        2.76844
H          4.48172        3.50438        0.52313
H          5.71067        2.35186       -0.00634
H          0.81735        1.55358        3.82173
H         -0.02106        0.14721        3.11797
H         -0.01429        1.71506        2.26946
H          6.36646        3.84372        1.94665
H          5.14974        3.04854        2.93227
H          6.38444        0.83077        2.63473
H          7.59584        1.66790        1.64183
H          7.41344        2.07313        3.36345
