11
ETHYL_FORMATE.gamout	Energy:    -268.0580213
C         -2.10756       -0.01000       -5.70563
O         -2.22326        0.60331       -6.73512
O         -1.19277       -0.94898       -5.45562
H         -2.75396        0.12552       -4.81734
C         -0.26024       -1.25459       -6.51810
C          0.67232       -2.33551       -6.01793
H          0.27576       -0.33294       -6.78593
H         -0.83240       -1.57321       -7.40088
H          1.22809       -1.99640       -5.13257
H          1.39695       -2.59305       -6.80322
H          0.11391       -3.24367       -5.75141
