10
ETHYLENE_GLYCOL.gamout	Energy:    -229.9800530
C         -0.38171        1.55965        1.41916
O          0.94416        1.05113        1.40342
C         -0.74084        1.93720       -0.00937
O         -2.06672        2.44571        0.00638
H         -0.46419        2.45313        2.06254
H         -1.10063        0.80613        1.78608
H          1.21068        0.79919        2.29276
H         -0.02194        2.69075       -0.37628
H         -0.65834        1.04373       -0.65275
H         -2.33323        2.69774       -0.88294
