18
ETHYL_PROPYL_ETHER.gamout	Energy:    -272.6155019
O          3.10088        1.73847        1.06114
C          4.43423        1.27914        1.10958
C          5.36476        2.47362        1.26240
C          2.13423        0.71797        0.92491
C          6.84296        2.08299        1.32682
C          0.75632        1.35173        0.88299
H          4.67821        0.71709        0.18527
H          4.56590        0.57946        1.95987
H          5.07553        3.02025        2.17327
H          5.18927        3.15945        0.41901
H          2.21073        0.00992        1.77421
H          2.32526        0.13746        0.00055
H          7.47568        2.97473        1.43624
H          7.16348        1.55779        0.41371
H          7.05005        1.42178        2.18279
H         -0.01860        0.57847        0.78016
H          0.67640        2.04173        0.03158
H          0.56695        1.91570        1.80688
