14
ETHYL_THIOACETATE.gamout	Energy:    -630.1779490
S          2.15485       -1.02625       -0.00238
O         -0.34167       -0.39653       -0.00266
C         -1.48853        0.47446       -0.00162
C         -2.72662       -0.39895       -0.00408
C          0.91614        0.05607       -0.00117
C          1.11862        1.54919        0.00150
H         -1.45845        1.11664        0.89168
H         -1.45741        1.12012       -0.89238
H         -3.62556        0.23331       -0.00333
H         -2.74844       -1.03762       -0.89705
H         -2.74947       -1.04119        0.88630
H          2.18714        1.77462        0.00250
H          0.65357        2.01103       -0.88468
H          0.65257        2.00802        0.88873
