22
ETHYLENE_GLYCOL_DIETHYL_ETHER.gamout	Energy:    -386.9994679
C         70.02809        9.94042       -0.00639
C         68.64053        9.31999       -0.00649
O         68.78407        7.91805       -0.00654
O         69.88458       11.34235       -0.00663
C         67.55666        7.21587       -0.00674
C         71.11200       12.04452       -0.00664
C         67.83441        5.72419       -0.00723
C         70.83427       13.53621       -0.00733
H         70.58716        9.60149        0.88641
H         70.58741        9.60123       -0.89894
H         68.08137        9.65907       -0.89917
H         68.08133        9.65898        0.88621
H         66.96328        7.50067        0.88432
H         66.96312        7.50130       -0.89748
H         71.70522       11.75980        0.88455
H         71.70573       11.75900       -0.89723
H         66.88955        5.16219       -0.00668
H         68.41030        5.43822       -0.89854
H         68.41154        5.43795        0.88318
H         71.77913       14.09820       -0.00659
H         70.25853       13.82211       -0.89874
H         70.25696       13.82251        0.88295
