19
ETHYL_ACETOACETATE.gamout	Energy:    -459.7824229
C          5.01913        0.70562        2.01750
C          4.25611        2.02031        2.08206
C          6.31656        0.81925        1.19896
O          2.99173        1.87405        1.66762
O          4.72238        3.07126        2.46081
C          7.46497        1.57398        1.82127
O          6.38449        0.30023        0.10640
C          2.15499        3.05362        1.67937
C          0.77944        2.65341        1.18866
H          4.39341       -0.07355        1.57155
H          5.26746        0.43270        3.05589
H          7.82371        1.02490        2.70736
H          8.28172        1.67596        1.09805
H          7.12209        2.55797        2.17236
H          2.62011        3.81273        1.03511
H          2.13215        3.45280        2.70297
H          0.83048        2.25057        0.16776
H          0.33510        1.89076        1.84310
H          0.12078        3.53291        1.18360
