20
ETHYLENE_GLYCOL_DIACETATE.gamout	Energy:    -534.9385471
O          1.95477        2.62650        0.29696
C          2.06952        1.72790        1.09618
O          3.26542        1.27941        1.54078
C          0.93413        0.96003        1.72107
C          4.44971        1.88966        1.00646
C          4.78542        3.16447        1.78002
O          5.96972        3.77468        1.24567
C          7.16561        3.32632        1.69041
O          7.28038        2.42787        2.48980
C          8.30100        4.09415        1.06544
H          1.01970       -0.10501        1.46388
H          0.98820        1.03619        2.81603
H         -0.01908        1.35832        1.36116
H          5.24425        1.14697        1.13289
H          4.30305        2.11823       -0.05682
H          3.99091        3.90719        1.65358
H          4.93210        2.93591        2.84330
H          8.21537        5.15923        1.32246
H          8.24699        4.01780       -0.02951
H          9.25422        3.69598        1.42547
