24
ETHYL_PHENYLACETATE.gamout	Energy:    -538.0626020
C          4.53158        1.49168        1.90135
C          4.72436        2.96454        1.53485
C          6.14836        3.46241        1.62715
O          3.25567        1.04495        1.98856
O          5.43225        0.71657        2.08737
C          6.47713        4.50307        2.50640
C          7.15968        2.91771        0.82023
C          2.10645        1.88303        1.79565
C          7.78505        4.99299        2.58050
C          8.46542        3.40502        0.89212
C          0.87582        0.99862        1.85024
C          8.78353        4.44523        1.77222
H          4.34297        3.08912        0.50600
H          4.07148        3.58202        2.16790
H          5.70261        4.93767        3.14260
H          6.92556        2.09661        0.14186
H          2.17416        2.39671        0.82464
H          2.07118        2.64679        2.58865
H          8.02214        5.80381        3.27193
H          9.24049        2.96803        0.25953
H          0.90818        0.24034        1.05636
H          0.81321        0.48455        2.81862
H         -0.02820        1.60906        1.71688
H          9.80532        4.82487        1.82725
