11
ETHYL_FORMATE.gamout	Energy:    -268.0508433
C         -1.91808        0.15599       -5.86484
O         -2.72069        0.58633       -5.08532
O         -1.03117       -0.79711       -5.54940
H         -1.83801        0.50807       -6.91931
C         -0.11771       -1.23818       -6.57490
C          0.77294       -2.30938       -5.98356
H          0.47496       -0.37810       -6.92469
H         -0.69678       -1.62963       -7.42632
H          1.34790       -1.91454       -5.13486
H          1.47912       -2.66583       -6.74638
H          0.17663       -3.16337       -5.63470
