20
ETHYL_BUTANOATE.gamout	Energy:    -385.8225420
C          0.62674       -0.34540       -0.18870
C          2.10268       -0.01672        0.05714
C          3.01577       -1.01195       -0.66798
C          4.55168       -0.99220       -0.65620
O          5.30304       -0.08645        0.00600
O          5.13701       -1.84167       -1.28411
C          4.86917        1.00407        0.83199
C          6.11698        1.71459        1.32214
H         -0.02868        0.36878        0.32880
H          0.37772       -1.35444        0.17279
H          0.38591       -0.30864       -1.26148
H          2.29529       -0.02901        1.13930
H          2.29926        1.00907       -0.28639
H          2.77088       -1.00878       -1.74233
H          2.76940       -2.03458       -0.33886
H          4.28385        0.62017        1.67878
H          4.23865        1.68891        0.24956
H          6.74978        1.02905        1.90082
H          5.83719        2.56236        1.96322
H          6.70174        2.09390        0.47372
