18
ETHYL_N-PROPYL_SULFIDE.gamout	Energy:    -595.5084521
S          2.06581        2.60315        1.85117
C          1.99854        1.18970        3.02343
C          0.54703        0.81693        3.31351
C          3.87149        2.91615        1.79375
C          4.69023        1.88306        1.01655
C          6.18172        2.23174        0.96922
H          2.51491        1.48367        3.95023
H          2.53284        0.33090        2.59246
H          0.50757       -0.02824        4.01633
H          0.02241        0.51867        2.39428
H          0.00187        1.66022        3.76052
H          4.24213        3.01631        2.82671
H          3.96690        3.90695        1.32412
H          4.28823        1.80835       -0.00553
H          4.56253        0.89045        1.47526
H          6.61192        2.28441        1.98143
H          6.34819        3.20611        0.48447
H          6.74641        1.47588        0.40447
