27
ETHYLCYCLOHEPTANE.gamout	Energy:    -353.3157150
C          4.26879        4.13254        1.11491
C          5.75540        3.77555        1.25314
C          3.27041        3.32508        1.97036
C          3.17475        1.86319        1.47633
C          1.88845        4.01203        1.95594
C          4.20453        0.86816        2.04124
C          5.65692        1.36857        2.16352
C          6.14422        2.30293        1.04294
C          0.90905        3.50887        3.01898
H          4.15962        5.20202        1.35681
H          3.96785        4.03148        0.05689
H          6.31850        4.39893        0.54004
H          6.10247        4.07881        2.25629
H          3.62588        3.32953        3.01745
H          2.17644        1.45754        1.69521
H          3.24531        1.87909        0.37624
H          1.44456        3.89403        0.95211
H          2.03146        5.09529        2.09765
H          3.87094        0.53051        3.03597
H          4.18614       -0.02948        1.40209
H          5.78533        1.89548        3.12366
H          6.31648        0.48923        2.22200
H          7.24340        2.25140        0.99843
H          5.78624        1.94949        0.06093
H          1.31605        3.66268        4.03031
H          0.68827        2.43706        2.90882
H         -0.04782        4.04753        2.95844
