23
ETHYL_TRIMETHYLACETATE.gamout	Energy:    -425.1029959
C          0.36757       19.84989       -0.96346
C          1.25273       20.87157       -0.21617
C          0.69465       22.28217       -0.45497
C          1.23194       20.57348        1.29935
C          2.69328       20.81270       -0.74723
O          1.29727       23.19072       -0.97982
O         -0.57252       22.40201       -0.01183
C         -1.22735       23.67800       -0.17169
C         -0.91335       24.61574        0.98189
H          0.76762       18.83632       -0.81523
H          0.35370       20.05228       -2.04427
H         -0.66563       19.87122       -0.59533
H          1.84841       21.29524        1.85452
H          1.64089       19.56934        1.48215
H          0.21180       20.61018        1.70110
H          2.72979       21.03587       -1.82130
H          3.33575       21.54111       -0.23580
H          3.10917       19.80826       -0.58584
H         -0.92167       24.11163       -1.13244
H         -2.29632       23.43324       -0.20689
H         -1.48749       25.54688        0.86846
H         -1.18614       24.15550        1.94197
H          0.15444       24.87030        0.99828
