16
ETHYLENE_GLYCOL_ETHYL_ETHER.gamout	Energy:    -308.4897717
C         -1.41534       -0.42039        0.25489
C          0.67355       -1.53249        0.36071
C          2.06319       -1.50846       -0.25534
C         -2.13573        0.70704       -0.45991
H          3.70958       -2.55652       -0.00028
O          2.81948       -2.53977        0.36395
O         -0.09259       -0.51332       -0.23936
H         -1.62151        1.66307       -0.28906
H         -2.16926        0.51924       -1.54221
H         -3.16684        0.79424       -0.08916
H         -1.39241       -0.23881        1.34724
H         -1.94150       -1.38232        0.09744
H          0.21116       -2.52457        0.19702
H          0.75055       -1.37704        1.45385
H          1.98094       -1.66581       -1.34486
H          2.51729       -0.51685       -0.08526
