14
ETHYL_ACETATE.gamout	Energy:    -307.3280249
O          1.60445        2.09391        1.35617
C          1.42475        3.50841        1.56102
C          2.25197        3.91083        2.76369
C          0.95948        1.54083        0.31253
C          1.27595        0.07277        0.18407
O          0.23537        2.16638       -0.42700
H          1.73643        4.03847        0.64962
H          0.35431        3.70928        1.71018
H          2.15454        4.99162        2.93713
H          1.91590        3.38279        3.66706
H          3.31407        3.67918        2.60216
H          0.51366       -0.41305       -0.43340
H          2.25456       -0.03926       -0.30749
H          1.34283       -0.40257        1.17065
