20
ETHYL_ISOBUTYRATE.gamout	Energy:    -385.8438764
O         34.20790       29.58687        0.69360
C         35.09166       29.43812       -0.31402
C         36.37733       30.21201       -0.05955
O         34.87378       28.76331       -1.29480
C         32.93113       28.92367        0.58067
C         36.10882       31.72409        0.02188
C         37.10387       29.68907        1.19106
C         31.91708       29.78940       -0.14798
H         36.99863       30.00872       -0.94343
H         33.07660       27.96529        0.06601
H         32.62568       28.73481        1.61766
H         37.05914       32.26733        0.12413
H         35.60384       32.09132       -0.88303
H         35.48091       31.96634        0.89061
H         38.06318       30.21238        1.31247
H         37.31135       28.61227        1.11383
H         36.50213       29.86128        2.09424
H         30.94178       29.28083       -0.16408
H         31.79305       30.75719        0.35808
H         32.22929       29.96410       -1.18627
