24
ETHYL_TERT-PENTYL_ETHER.gamout	Energy:    -351.1344947
O          0.55326        0.46121        0.32609
C         -0.77919        0.67697       -0.17635
C         -1.31431       -0.58610       -0.89459
C         -1.59541        0.99295        1.08138
C         -0.82033        1.87791       -1.13466
C         -1.25692       -1.87908       -0.07868
C          1.60533        0.22379       -0.58969
C          2.87729       -0.01654        0.20627
H         -2.35407       -0.38406       -1.19731
H         -0.75839       -0.72120       -1.83553
H         -2.66071        1.11029        0.83823
H         -1.48936        0.19293        1.82407
H         -1.23697        1.92490        1.53881
H         -1.86064        2.11403       -1.39881
H         -0.37714        2.76224       -0.65613
H         -0.28159        1.68035       -2.07150
H         -1.59467       -2.73198       -0.68439
H         -1.90253       -1.82976        0.80939
H         -0.23476       -2.08587        0.26650
H          1.38618       -0.65408       -1.22333
H          1.74000        1.08615       -1.26611
H          3.72665       -0.18467       -0.47101
H          3.10187        0.85233        0.84022
H          2.76703       -0.89674        0.85473
