10
ETHYLENE_CYANOHYDRIN.gamout	Energy:    -246.9742177
N         -2.08565        0.69500        0.34345
C         -1.69159       -0.27666       -0.14747
C         -1.21136       -1.51284       -0.76622
C         -1.99650       -2.74527       -0.30268
H         -0.14588       -1.64756       -0.52453
H         -1.28765       -1.42109       -1.86054
O         -1.43023       -3.85692       -0.97230
H         -3.06384       -2.62218       -0.55475
H         -1.91365       -2.84781        0.79301
H         -1.88362       -4.66661       -0.71521
