13
ETHYL_CARBAMATE.gamout	Energy:    -323.3757071
O          2.98656        1.87697        0.96117
C          1.64842        2.06561        1.03430
C          3.80427        3.05866        1.04128
N          0.99200        0.87515        0.94284
O          1.11451        3.14764        1.16307
C          5.25497        2.63053        0.95169
H          3.58968        3.57621        1.98735
H          3.52635        3.73768        0.22262
H         -0.01445        0.87258        0.99465
H          1.49359        0.00562        0.84600
H          5.51216        1.94337        1.76994
H          5.46205        2.13099       -0.00501
H          5.90305        3.51511        1.02688
