6
ETHYLENE.gamout	Energy:     -78.4789605
C          0.66665       -0.00000       -0.00019
C         -0.66665        0.00000        0.00008
H          1.23925        0.93041        0.00016
H          1.23926       -0.93040        0.00142
H         -1.23924       -0.93041       -0.00063
H         -1.23925        0.93041        0.00072
