21
ETHYL_TERT-BUTYL_ETHER.gamout	Energy:    -311.8772384
O          2.16632        0.92560        0.69142
C          0.94012        1.04381       -0.05317
C          3.39931        1.12313        0.02685
C          0.83473       -0.07141       -1.10646
C          0.82519        2.42896       -0.71046
C         -0.14909        0.86903        1.00946
C          4.52090        0.79609        0.99813
H          3.49372        2.16927       -0.31572
H          3.47436        0.47875       -0.86723
H          1.56729        0.05243       -1.91572
H         -0.16449       -0.06760       -1.56480
H          0.99268       -1.05213       -0.63684
H          1.56841        2.56725       -1.50774
H          0.96669        3.22072        0.03845
H         -0.16867        2.55401       -1.16263
H         -0.03866       -0.10433        1.50632
H         -1.14902        0.91944        0.55678
H         -0.06770        1.65514        1.77215
H          4.43701        1.41494        1.90226
H          5.49736        0.99177        0.53213
H          4.48190       -0.26070        1.29669
