20
ETHYL_NICOTINATE.gamout	Energy:    -514.8423689
O          2.14283        0.02788       -1.46462
O          1.54366       -2.14115       -1.41634
N         -1.50531        1.31064       -0.07797
C         -0.04229       -0.48799       -0.73103
C          3.45196       -0.33168       -1.95213
C          1.27775       -0.97252       -1.23483
C         -1.04455       -1.42483       -0.44484
C          4.24918        0.94362       -2.13147
C         -0.32866        0.87277       -0.52825
C         -2.27309       -0.96902        0.02543
C         -2.45343        0.40926        0.19190
H          3.91910       -1.01341       -1.22732
H          3.33546       -0.88371       -2.89550
H         -0.84076       -2.48549       -0.59612
H          3.76446        1.61123       -2.85729
H          4.35092        1.47911       -1.17740
H          5.25503        0.70158       -2.50184
H          0.43045        1.62712       -0.74188
H         -3.08084       -1.66334        0.26053
H         -3.40645        0.80127        0.55941
