25
FAP-1.gamout	Energy:   -2364.9778289
P          1.36043       -0.23982       -1.06450
C          3.07401        0.59502       -1.73646
C          3.00843        1.78754       -2.73575
C          0.72645        1.38125       -0.04673
C         -0.35410        1.24685        1.07291
C          2.31877       -1.12547        0.44460
C          1.72532       -2.43699        1.05403
F         -0.06097       -0.98384       -0.58947
F          0.59588        0.37615       -2.40292
F          1.73715       -1.60115       -1.94371
F          3.55328       -1.50177        0.00794
F          2.51596       -0.30383        1.51393
F          2.61717       -2.92900        1.94622
F          1.52357       -3.38062        0.13599
F          0.58881       -2.23056        1.71962
F          3.81468       -0.32383       -2.41344
F          3.85040        1.04029       -0.70723
F          2.50943        1.42841       -3.91984
F          4.26730        2.22790       -2.95919
F          2.31198        2.82145       -2.26343
F          0.13050        2.25893       -0.90174
F          1.76190        2.04980        0.52984
F         -0.02560        0.39119        2.04031
F         -1.54752        0.90581        0.57989
F         -0.50244        2.46040        1.64943
