30
FLUFENAMIC_ACID.gamout	Energy:   -1043.0487954
F          3.37687       -2.18520       -0.20054
F          4.96044       -0.79651        0.32454
F          3.42964       -1.30179        1.77723
O         -4.81504        1.25889        1.07612
O         -2.93715        2.36205        0.58422
N         -0.84000        0.95077       -0.29298
C          0.55622        0.99639       -0.38463
C         -1.68977       -0.13337       -0.32872
C          2.78736        0.10501       -0.02203
C          1.39710       -0.03400        0.06479
C         -3.04726        0.00857        0.10970
C          1.14654        2.17441       -0.88880
C          3.36765        1.26876       -0.53122
C         -1.28631       -1.39502       -0.82489
C          2.53001        2.30799       -0.95058
C         -3.91315       -1.10365        0.06330
C          3.64435       -1.03745        0.46723
C         -2.16728       -2.46796       -0.86031
C         -3.48856       -2.33761       -0.40756
C         -3.55338        1.30349        0.59541
H         -1.31341        1.82978       -0.08210
H          0.97461       -0.93046        0.51344
H          0.50033        2.98392       -1.23200
H          4.44989        1.36457       -0.59258
H         -0.27770       -1.52251       -1.21007
H          2.96477        3.22878       -1.34211
H         -4.93906       -0.97254        0.40158
H         -1.81721       -3.42315       -1.25639
H         -4.17456       -3.18414       -0.43598
H         -5.04464        2.15811        1.35516
