23
FLUORENE.gamout	Energy:    -500.7640711
C          3.29353        1.42470        2.77569
C          4.42939        1.46380        3.71053
C          2.30004        2.31601        3.24014
C          3.09171        0.69003        1.60150
C          4.13003        2.37857        4.74548
C          5.64790        0.77618        3.70323
C          2.75904        2.98362        4.52006
C          1.10844        2.47442        2.53627
C          1.89398        0.85346        0.89906
C          5.04497        2.60661        5.77131
C          6.56184        1.00882        4.73503
C          0.90907        1.73781        1.36098
C          6.26446        1.91623        5.76169
H          3.85369       -0.00049        1.23589
H          5.88526        0.06838        2.90701
H          2.07512        2.77586        5.36029
H          2.80618        4.08093        4.41653
H          0.33775        3.16206        2.89149
H          1.72304        0.28724       -0.01834
H          4.81953        3.31233        6.57386
H          7.51601        0.47892        4.74157
H         -0.02038        1.85332        0.80069
H          6.98961        2.08559        6.55952
