8
FLUOROETHANE.gamout	Energy:    -178.8473135
C         -0.00279        9.99982        0.00010
C          1.29612        9.22457       -0.00010
F          2.38403       10.10768        0.00010
H         -0.85142        9.29848       -0.00006
H         -0.07826       10.63476        0.89391
H         -0.07828       10.63519       -0.89341
H          1.39770        8.59313       -0.89578
H          1.39772        8.59269        0.89527
