6
FORMAMIDE.gamout	Energy:    -169.6993544
N         33.99240        0.01923       -0.00000
C         32.79333        0.66070        0.00000
O         31.71221        0.10858       -0.00000
H         34.86482        0.52794       -0.00000
H         34.01691       -0.99306        0.00000
H         32.90296        1.77042        0.00000
