11
FUMARATE_MONOANION-1.gamout	Energy:    -454.6754367
O          2.16143       -2.17321        0.08200
O         -2.44077        1.62210       -0.28378
O          2.27966        0.08784        0.26762
O         -2.75707       -0.56642       -0.50530
C          0.16922       -0.93904       -0.09897
C         -0.50480        0.22262       -0.14954
C          1.69440       -1.00881        0.10537
C         -1.96442        0.33005       -0.33017
H         -0.36577       -1.88744       -0.20524
H          0.08808        1.13766       -0.03424
H         -1.70045        2.22335       -0.12875
