10
FUMARATE_DIANION-2.gamout	Energy:    -454.0135658
O          2.84577       -0.91150       -0.01643
O         -2.84900        0.91078        0.01275
O          2.27234        1.27208        0.00378
O         -2.26758       -1.27074        0.01426
C          0.53760       -0.39986        0.00138
C         -0.53824        0.40573       -0.00826
C          2.00535        0.03971       -0.00456
C         -2.00512       -0.03731        0.00700
H          0.37152       -1.48202        0.01528
H         -0.37363        1.48812       -0.02588
