12
FUMARIC_ACID.gamout	Energy:    -455.2192528
C          2.90436        1.35025        0.52765
C          3.57379        2.44892        0.90065
C          1.45169        1.20385        0.81570
C          5.02647        2.59529        0.61256
O          0.97779        0.02644        0.35589
O          0.76081        2.01574        1.38539
O          5.50010        3.77329        1.07114
O          5.71762        1.78279        0.04409
H          3.41153        0.53822        0.00365
H          3.06667        3.26098        1.42466
H          0.03158       -0.01992        0.56766
H          6.44634        3.81954        0.85954
