13
FURFURYL_ALCOHOL.gamout	Energy:    -344.1336192
O         -4.50165        1.59111        0.25987
C         -4.75599        0.34243        0.87640
C         -5.59009       -0.56498        0.02271
C         -6.50680       -0.34373       -0.96797
O         -5.45023       -1.90497        0.23093
C         -6.96145       -1.63933       -1.39335
C         -6.29011       -2.54741       -0.62852
H         -4.07731        1.44374       -0.59426
H         -3.82331       -0.18499        1.14604
H         -5.27524        0.57920        1.81868
H         -6.82256        0.62691       -1.33875
H         -7.69168       -1.86329       -2.16630
H         -6.29263       -3.63091       -0.57755
