11
FURFURAL.gamout	Energy:    -342.9336836
C         -5.65994       -0.50853       -0.19468
O         -5.05379       -1.55362       -0.82620
C         -7.02386       -0.58549       -0.38328
C         -4.85314        0.46408        0.53131
C         -6.01887       -2.28852       -1.41056
C         -7.25731       -1.74634       -1.17618
O         -3.64420        0.44194        0.63844
H         -7.76191        0.11186        0.00453
H         -5.46379        1.27146        1.00490
H         -5.69042       -3.16642       -1.95913
H         -8.20943       -2.13389       -1.52896
