12
G-BUTYROLACTONE.gamout	Energy:    -306.1192115
O         -0.05586        0.03422        1.40086
C          0.89404        0.76031        1.29921
C          0.90120        2.25089        0.98315
O          2.16653        0.32131        1.46274
C          2.37983        2.66758        0.98031
C          3.14680        1.35821        1.29701
H          0.29473        2.76539        1.74116
H          0.39580        2.39994        0.01909
H          2.58859        3.43620        1.73512
H          2.68649        3.07617        0.00915
H          3.82069        1.05183        0.48560
H          3.72734        1.41842        2.22741
