15
G-VALEROLACTONE.gamout	Energy:    -345.3858350
C         -0.82028       -0.95970       -0.15797
C         -1.42663       -2.07157        0.67375
O          0.61954       -0.95298        0.02918
C         -1.26132        0.47119        0.19828
C          1.12537        0.30692        0.02379
C         -0.02112        1.29709       -0.15109
O          2.29829        0.53573        0.13583
H         -0.99648       -1.15472       -1.22955
H         -1.21736       -1.91339        1.74118
H         -1.02022       -3.04753        0.37722
H         -2.51707       -2.09200        0.52951
H         -1.47751        0.53315        1.27572
H         -2.16651        0.77032       -0.34562
H          0.14308        2.18849        0.46536
H         -0.02255        1.61942       -1.20526
