10
GAI+1.gamout	Energy:    -205.5241322
C         -4.54400        1.04290        1.02619
N         -4.47400        1.20496        2.34921
H         -5.28125        1.47324        2.89653
H         -3.61056        1.06598        2.85725
N         -3.45632        0.68812        0.33862
N         -5.70176        1.23541        0.39058
H         -2.56552        0.53520        0.79277
H         -3.47971        0.55810       -0.66412
H         -5.78527        1.12005       -0.61080
H         -6.54191        1.50455        0.88528
