18
GALLIC_ACID.gamout	Energy:    -645.7435755
O          0.54231        2.24526        0.88811
C          1.24015        3.38819        0.66911
O          0.68089        4.44887        0.48932
C          2.70951        3.19108        0.67659
C          3.52575        4.31173        0.46015
C          3.28801        1.92964        0.89189
C          4.91415        4.18765        0.45610
C          4.67439        1.81181        0.88632
O          5.76166        5.23109        0.25310
C          5.50276        2.92691        0.67058
O          5.35021        0.63413        1.08393
O          6.84785        2.80938        0.66543
H         -0.39785        2.47856        0.86423
H          3.05446        5.28192        0.29537
H          2.65784        1.05682        1.06051
H          5.26508        6.04606        0.11656
H          4.74227       -0.09927        1.22683
H          7.08452        1.88478        0.82639
