17
GALLATE-1.gamout	Energy:    -645.1952713
O          1.41522        2.54350       -0.00450
O          2.77998        0.22639        0.05930
O         -1.32419        2.56467       -0.06646
O         -0.75927       -3.47036        0.03277
O         -2.72012       -2.33663       -0.02814
C         -0.69161       -1.09272        0.00001
C          0.72034        1.35878       -0.00321
C          1.39314        0.13024        0.02945
C         -0.68040        1.34641       -0.03451
C          0.70848       -1.08134        0.03138
C         -1.36985        0.13086       -0.03274
C         -1.47059       -2.43729        0.00165
H          1.22595       -2.04462        0.05683
H         -2.46325        0.10186       -0.05691
H          2.35451        2.31881        0.01979
H          3.15548       -0.65940        0.08042
H         -2.27333        2.40083       -0.08544
