30
GENISTEIN.gamout	Energy:    -952.5984515
O          1.21983        1.94096        0.48219
O          2.36082       -2.56647       -0.69205
O         -0.08990       -1.78511       -0.54745
O          5.74392        0.67239        0.23417
O         -6.26947       -0.15082        0.01169
C          1.71653       -0.33150       -0.11124
C         -0.63140        0.45959        0.08152
C          2.14451        0.96396        0.24136
C          0.29883       -0.64481       -0.22136
C         -2.10369        0.27065        0.06056
C          2.71624       -1.32521       -0.35487
C         -0.09636        1.67111        0.39569
C          3.48730        1.30903        0.35742
C          4.06644       -0.99439       -0.23835
C          4.44158        0.31255        0.11396
C         -2.73170       -0.41977       -0.98775
C         -2.91808        0.79143        1.08061
C         -4.11606       -0.56820       -1.02418
C         -4.30330        0.65089        1.05318
C         -4.91124       -0.03144       -0.00473
H         -0.70189        2.55895        0.59819
H          3.79244        2.31846        0.62714
H          4.81326       -1.76647       -0.42862
H         -2.12911       -0.85010       -1.78383
H         -2.45638        1.29557        1.93013
H         -4.58363       -1.10853       -1.85098
H         -4.93164        1.04787        1.85135
H          1.36361       -2.59245       -0.72173
H          6.32708       -0.07338        0.04958
H         -6.57310       -0.65399       -0.75217
