29
GERANIOL.gamout	Energy:    -466.4647678
C         -3.07124        2.82640       -0.06802
C         -1.67025        2.27327       -0.05558
C         -0.52636        2.97557       -0.04455
C          0.80912        2.23046       -0.03312
C         -0.51693        4.48594       -0.04306
H          0.00088        4.88403        0.84447
H         -1.52844        4.90751       -0.05161
H          0.01685        4.88594       -0.92016
C          2.08894        3.07803       -0.02255
H          0.84603        1.56355       -0.91032
H          0.83120        1.56346        0.84455
C          3.33367        2.21648       -0.01215
H          2.08804        3.74335        0.85639
H          2.10209        3.74291       -0.90171
C          4.60882        2.64102       -0.00238
C          4.99819        4.09802       -0.00041
H          4.13712        4.77560       -0.00802
H          5.62473        4.33323       -0.87772
H          5.61040        4.33475        0.88653
C          5.76093        1.66781        0.00724
H          6.41248        1.81737       -0.87080
H          5.41613        0.62550        0.00514
H          6.39901        1.81821        0.89499
H          3.16405        1.13466       -0.01267
H         -1.62966        1.17998       -0.05627
O         -3.97485        1.72409       -0.07775
H         -3.23558        3.46259       -0.95878
H         -3.25235        3.46041        0.82104
H         -4.88125        2.04745       -0.08689
