17
GLUTARIC_ACID.gamout	Energy:    -495.7010390
C          2.55072        4.14939        0.07427
C          3.34803        3.23123        1.01575
C          4.83629        3.61763        1.05327
C          1.08031        3.80300        0.00594
C          5.65605        2.74579        1.97761
O          0.48051        3.89931        1.21523
O          0.47810        3.47872       -0.98850
O          5.62242        1.44321        1.61181
O          6.28072        3.12973        2.93643
H          2.63225        5.19282        0.42059
H          2.94083        4.09876       -0.95021
H          2.92645        3.29302        2.02908
H          3.25021        2.18739        0.68489
H          5.26605        3.53406        0.04175
H          4.96483        4.65289        1.39401
H         -0.45565        3.66960        1.10277
H          6.16680        0.94302        2.24051
