15
GLUTARATE_DIANION-2.gamout	Energy:    -494.4973331
O          3.39385        0.50026       -0.61644
O         -3.15091        1.14851       -0.23379
O          2.46188        0.07806        1.39563
O         -2.90663       -1.08142        0.00339
C         -0.00914       -0.89733        0.02264
C          1.41172       -0.84992       -0.57206
C         -0.92377        0.27588       -0.35868
C          2.50941        0.00796        0.14097
C         -2.46738        0.08760       -0.16448
H          0.07923       -0.96198        1.11879
H         -0.51715       -1.81950       -0.30215
H          1.82610       -1.87699       -0.57048
H          1.37875       -0.54087       -1.63022
H         -0.63092        1.19490        0.17239
H         -0.78913        0.50714       -1.43303
