14
GLUTARIC_ANHYDRIDE.gamout	Energy:    -419.3332218
O         -0.03291        2.66212        1.57440
C          1.16208        2.62027        1.57769
O          1.76924        1.38378        1.41612
C          2.07209        3.81544        1.76231
C          3.13340        1.13597        1.37903
C          3.42728        3.63726        1.08007
O          3.49238        0.00510        1.23058
C          4.05595        2.32465        1.54727
H          2.20681        3.94454        2.85031
H          1.52203        4.69458        1.40566
H          4.08834        4.48261        1.31280
H          3.29724        3.62339       -0.01306
H          4.98827        2.08370        1.02269
H          4.30174        2.38138        2.62195
