19
GLUTAMIC_ACID.gamout	Energy:    -550.9837645
C          2.68239        1.80066       -0.21517
C          3.87049        1.00104        0.33572
C          5.18738        1.66742       -0.05738
N          3.83425       -0.39430       -0.09596
C          1.34108        1.25019        0.26395
O          5.33103        2.84261       -0.28309
O          6.22511        0.80007       -0.06248
C          0.15534        2.07334       -0.18866
O          0.19886        3.09839       -0.82271
O         -1.01301        1.51833        0.21195
H          2.72069        1.78551       -1.31321
H          2.78539        2.84887        0.09193
H          3.12128       -0.92363        0.39588
H          4.72532       -0.85874        0.04668
H          1.29739        1.19939        1.36585
H          1.17240        0.22020       -0.08769
H          7.02813        1.30218       -0.27288
H         -1.73404        2.08788       -0.10002
H          3.86275        1.09764        1.44539
