13
GLUTARONITRILE.gamout	Energy:    -303.2237629
C         -5.35676        0.87091       -0.00168
C         -4.14681        1.69608        0.01933
C         -2.85496        0.85928       -0.00773
H         -4.17867        2.32812        0.92183
H         -4.18376        2.37855       -0.84554
C         -1.60769        1.76127        0.02551
H         -2.83653        0.23613       -0.91262
H         -2.83905        0.17589        0.85266
C         -0.35734        0.99882        0.00325
H         -1.60967        2.38954        0.93122
H         -1.60485        2.44912       -0.83589
N         -6.30869        0.21249       -0.02358
N          0.62476        0.38606       -0.01437
