8
GLY-1.gamout	Energy:    -303.4142874
O         -1.90706        0.72426       -0.53127
O          1.43160       -0.26457        0.30660
O         -0.54968       -0.26786        1.41248
C         -0.52677        0.55643       -0.80772
C          0.20700       -0.05617        0.42301
H         -0.37932       -0.11001       -1.67769
H         -0.05506        1.52583       -1.05325
H         -1.94341        0.38680        0.39524
