26
GLYCEROL_2-TERT-BUTYL_ETHER.gamout	Energy:    -501.4047331
C          1.32364        0.28350        0.77916
C          0.05697        0.10633        1.62476
C          1.51559        1.74073        0.37621
O          2.43721       -0.14336        1.54598
O         -1.07664        0.40837        0.81952
O          2.49943        1.81646       -0.64771
C          4.27534       -1.40932        2.23461
C          3.17465       -1.32796        1.17134
C          2.27939       -2.57473        1.23855
C          3.79869       -1.17202       -0.22312
H          1.20952       -0.31038       -0.14050
H          0.02207       -0.93254        1.98785
H          0.11227        0.77027        2.50637
H          0.55120        2.14413        0.02827
H          1.83453        2.30279        1.27240
H         -1.88529        0.26651        1.32179
H          2.60310        2.73032       -0.92982
H          3.83276       -1.48200        3.23722
H          4.90053       -0.50756        2.19829
H          4.91554       -2.28672        2.06884
H          1.83372       -2.67461        2.23777
H          2.87193       -3.47816        1.03641
H          1.47070       -2.54078        0.49498
H          4.39210       -0.25119       -0.27365
H          3.03828       -1.12573       -1.01331
H          4.45207       -2.02966       -0.43782
