26
GLYCEROL_1-TERT-BUTYL_ETHER.gamout	Energy:    -501.4058085
C          0.72131       -0.07349        0.11462
C          0.16225        1.10170       -0.67244
C          0.03586       -1.39215       -0.25970
O          2.11496       -0.17524       -0.16315
O          0.57764        2.29630       -0.05041
O         -1.32156       -1.33992        0.15588
C          1.10565        3.67457       -1.99987
C          0.29735        3.55138       -0.69813
C         -1.20747        3.71079       -0.96657
C          0.76892        4.59562        0.31849
H          0.54899        0.12493        1.18547
H         -0.93623        1.01787       -0.69324
H          0.53714        1.02568       -1.70896
H          0.57408       -2.21604        0.24189
H          0.12004       -1.54971       -1.35048
H         -1.76279       -2.17044       -0.04842
H          0.77592        2.95201       -2.75877
H          2.17237        3.50637       -1.80025
H          0.98378        4.67929       -2.42870
H         -1.56684        3.00623       -1.72915
H         -1.42024        4.72554       -1.33055
H         -1.77946        3.54732       -0.04275
H          1.83590        4.45404        0.53637
H          0.20811        4.49065        1.25702
H          0.62051        5.61311       -0.06836
H          2.57166       -0.58528        0.57808
