10
GLYCINE.gamout	Energy:    -284.1033330
N         -0.40573        0.90689       -0.01033
C          0.75905        1.75835       -0.06306
C          2.10370        1.04971       -0.18597
O          3.12605        1.93181       -0.23106
O          2.26730       -0.14458       -0.23783
H         -0.36241        0.26892        0.78031
H         -0.48193        0.33088       -0.84488
H          0.80468        2.39440        0.83539
H          0.67827        2.45983       -0.90882
H          3.95376        1.43079       -0.30807
