14
GLYCEROL.gamout	Energy:    -344.3777986
O          2.08891       -0.56015        0.35408
C          1.29556        0.26155        1.19427
C         -0.06932        0.45388        0.54979
O         -0.83565       -0.71816        0.76635
C         -0.79038        1.67605        1.11519
O         -2.07253        1.72354        0.49879
H          2.88750       -0.83151        0.81737
H          1.14654       -0.20388        2.18402
H          1.77510        1.24774        1.34094
H          0.08537        0.60984       -0.53411
H         -1.72892       -0.55352        0.43800
H         -0.88530        1.57532        2.21115
H         -0.21089        2.58885        0.88982
H         -2.63520        2.36873        0.93794
