10
GLYCINE.gamout	Energy:    -284.1030338
N         -1.42070        1.47780        0.01770
C         -0.45970        2.55410        0.26480
C          0.98750        2.09770        0.01240
O          1.09810        0.79460       -0.26020
O          1.92760        2.84810        0.06950
H         -2.05760        1.31490        0.79010
H         -1.96670        1.60960       -0.82770
H         -0.50160        2.88560        1.31270
H         -0.63570        3.44720       -0.35240
H          0.17640        0.44470       -0.24670
