10
GLYCINE.gamout	Energy:    -284.1013171
N         -0.37142        1.00353        0.14714
C          0.74541        1.85919       -0.19587
C          2.05754        1.12766       -0.01707
O          3.10125        1.97858        0.07282
O          2.18547       -0.07202        0.00310
H         -0.23625        0.05843       -0.20333
H         -1.25469        1.36522       -0.19645
H          0.75849        2.76075        0.43532
H          0.75760        2.22014       -1.24691
H          3.91259        1.44910        0.13103
