27
HEMPA.gamout	Energy:   -1423.2598252
N         -2.34484        2.58057        1.65379
C         -1.23278        1.65869        1.90118
C         -0.36072        1.44081        0.66694
H         -0.59129        2.01033        2.73290
H         -1.64595        0.68802        2.20089
H         -0.93997        0.88787       -0.09080
O          0.78075        0.70661        1.09128
H         -0.06755        2.41063        0.22811
H          1.27723        0.38914        0.33002
C         -2.05393        3.98695        1.82148
C         -3.64216        2.14702        2.13763
P         -2.57792        5.06213        0.42831
H         -0.97017        4.14452        1.90768
H         -2.50726        4.42568        2.73105
O         -4.10552        4.50554        0.08589
O         -1.68244        4.49184       -0.80528
P         -4.46870        0.97186        0.98879
H         -3.59665        1.65820        3.12839
H         -4.31850        3.00459        2.23712
H         -4.72541        5.24033       -0.02992
H         -1.51868        5.14938       -1.49538
O         -4.57279        1.74862       -0.43012
H         -4.49010        2.71955       -0.36482
O         -5.98474        1.00736        1.62529
H         -6.41289        0.14127        1.58715
O         -3.89517       -0.40223        0.87251
O         -2.55094        6.54271        0.62945
