19
HEPTENE-6-NITRILES.gamout	Energy:    -327.6477556
C         -1.82892       -0.07397        0.17182
C         -0.60933       -0.88147        0.09221
C         -0.40303       -1.52728       -1.29210
C          0.87525       -2.36625       -1.35661
C          1.09115       -3.01719       -2.73374
C          2.36930       -3.80409       -2.82063
C          2.45668       -5.11350       -3.07213
N         -2.79734        0.55979        0.21527
H          0.24743       -0.23497        0.34232
H         -0.65719       -1.65795        0.87264
H         -1.27645       -2.15492       -1.52787
H         -0.37059       -0.73446       -2.05552
H          1.74462       -1.73123       -1.11355
H          0.84449       -3.15535       -0.58705
H          0.23782       -3.67254       -2.97088
H          1.10077       -2.22058       -3.49916
H          3.29231       -3.23621       -2.65144
H          3.42031       -5.62360       -3.11636
H          1.56560       -5.72231       -3.24759
