15
HEPTAFLUOROPROPYL_METHYL_ETHER.gamout	Energy:    -927.3325788
F          1.98758        0.15884        0.35382
F          0.43176        1.24538        1.45737
F         -0.10988        2.75951       -0.81475
F          1.43448        1.68863       -1.90887
F          0.08635       -0.68913       -1.46229
F         -1.44867        0.38959       -0.36929
F         -0.33133       -1.19321        0.60491
O          2.00454        2.83841       -0.06971
C          0.82427        0.82862        0.23709
C          1.06793        2.08933       -0.65766
C         -0.25008       -0.18861       -0.27210
C          2.38757        4.06295       -0.72227
H          1.52503        4.73677       -0.80156
H          2.80673        3.85214       -1.71436
H          3.15240        4.50563       -0.07773
