14
HEPTAFLUOROBUTANOIC_ACID.gamout	Energy:   -1001.2827528
F         -0.31931        0.92098        1.55932
F         -1.11496        1.78713       -0.28861
F          0.67972        0.48741       -1.78087
F          1.58823        1.67304       -0.17781
F         -0.89896       -1.60968        0.58807
F         -1.79498       -0.71680       -1.18034
F         -2.59616       -0.26780        0.78318
O          2.12258       -0.58404        1.23906
O          2.01462       -1.57235       -0.78838
C         -0.50975        0.70831        0.24374
C          0.88586        0.54797       -0.45572
C         -1.48044       -0.50492        0.09495
C          1.73909       -0.68641       -0.03288
H          2.66342       -1.35675        1.47134
