20
HEXAMETHYLENEIMINE.gamout	Energy:    -290.8125305
C         -5.99443        0.83822        0.45003
C         -6.27790       -0.28642       -0.58550
C         -4.64155        0.72769        1.16709
C         -5.04144       -1.04387       -1.09088
C         -3.41704        1.08057        0.25777
C         -3.98910       -0.17987       -1.81430
N         -3.63769        1.08591       -1.18030
H         -6.05671        1.82253       -0.04096
H         -6.79438        0.84246        1.20560
H         -6.82477        0.13646       -1.44412
H         -6.95978       -1.02453       -0.13498
H         -4.53019       -0.28456        1.58553
H         -4.64155        1.40891        2.03156
H         -5.36351       -1.84158       -1.77983
H         -4.56390       -1.56250       -0.24493
H         -2.58789        0.38720        0.47322
H         -3.05080        2.08247        0.52645
H         -4.33657        0.05484       -2.83223
H         -3.07097       -0.78181       -1.93492
H         -4.27915        1.82297       -1.45015
