49
HEXADECANOATE-1.gamout	Energy:    -777.8848058
O         -7.25247       -1.01210       -1.32632
O         -8.73744       -1.38640        0.34104
C          1.57356        0.56366       -0.24394
C          0.24917       -0.02528        0.25449
C          2.81190       -0.22090        0.20406
C         -0.98899        0.76686       -0.17877
C          4.13603        0.38096       -0.27692
C         -2.30880        0.18380        0.33376
C          5.37202       -0.39667        0.18420
C         -3.54254        0.98232       -0.09770
C          6.69318        0.21963       -0.28638
C         -4.86609        0.39604        0.39887
C          7.93482       -0.54649        0.18044
C         -6.09475        1.20866       -0.01881
C          9.25623        0.07603       -0.28310
C         -7.41568        0.59902        0.45464
C         10.49314       -0.69034        0.19051
C         -7.83710       -0.73953       -0.24711
H          1.65941        1.60718        0.10702
H          1.55624        0.61597       -1.34685
H          0.27142       -0.08494        1.35719
H          0.15600       -1.06600       -0.10207
H          2.73551       -1.26177       -0.15573
H          2.82344       -0.28214        1.30667
H         -0.89492        1.81095        0.16941
H         -1.02436        0.81785       -1.28132
H          4.21166        1.42366        0.07802
H          4.13372        0.43601       -1.37973
H         -2.40660       -0.85744       -0.01976
H         -2.27891        0.12857        1.43691
H          5.30555       -1.43777       -0.17742
H          5.37214       -0.45829        1.28691
H         -3.56731        1.04170       -1.20011
H         -3.44198        2.02325        0.26083
H          6.75269        1.26252        0.07108
H          6.69382        0.27696       -1.38919
H         -4.83622        0.31652        1.50174
H         -4.98530       -0.62609        0.00834
H          7.92954       -0.60765        1.28316
H          7.87721       -1.58827       -0.18088
H         -5.99529        2.24076        0.36883
H         -6.11775        1.26998       -1.11828
H          9.26044        0.13500       -1.38495
H          9.30923        1.11817        0.07542
H         -8.24012        1.31311        0.28191
H         -7.39699        0.42108        1.54344
H         10.53522       -0.73782        1.29015
H         11.42163       -0.21406       -0.15828
H         10.48819       -1.72607       -0.18413
