10
HEXAFLUOROACETONE.gamout	Energy:    -787.7285469
C          2.60530        0.88898        0.07115
C          1.28173        1.71582       -0.00157
C         -0.05502        0.91007       -0.07140
O          1.29119        2.90785       -0.00139
F          3.63665        1.63945       -0.29594
F          2.79710        0.47713        1.33407
F          2.54306       -0.18680       -0.72439
F         -1.07333        1.67689        0.29824
F         -0.25629        0.50122       -1.33378
F         -0.00748       -0.16633        0.72418
