22
HEXAMETHYLENETETRAMINE.gamout	Energy:    -454.2434830
C         -0.45018       -1.57722        0.40045
N         -1.40317       -0.51427        0.03586
N          0.94305       -1.09960        0.37249
C         -1.06068       -0.03087       -1.31249
C         -1.23095        0.60166        0.98139
N          0.31834        0.48094       -1.37879
C          1.23268       -0.60376       -0.98460
C          0.45179        1.57485       -0.40159
C          1.06205        0.02962        1.31095
N          0.14373        1.12753        0.96667
H         -0.68633       -1.94177        1.41002
H         -0.55746       -2.41538       -0.30218
H         -1.75675        0.77092       -1.59618
H         -1.17493       -0.85434       -2.03162
H         -1.92915        1.40881        0.71852
H         -1.47442        0.25575        1.99599
H          2.26772       -0.23577       -1.02135
H          1.13786       -1.43407       -1.69845
H          1.47940        1.96371       -0.43229
H         -0.23091        2.39084       -0.67798
H          2.09516        0.40410        1.29524
H          0.83962       -0.32198        2.32825
