30
HEXAMETHYLBENZENE.gamout	Energy:    -467.4945994
C          2.16175        3.15120        3.52792
C          0.76080        3.54237        3.96219
C          2.33956        2.23246        2.47129
C          3.28527        3.72157        4.16374
C          1.13381        1.55183        1.84942
C          3.63873        1.93108        2.00941
C          3.09725        4.63855        5.35901
C          4.58443        3.42025        3.70181
C          3.82673        1.01399        0.81424
C          4.76221        2.50150        2.64519
C          5.79026        4.10088        4.32359
C          6.16317        2.11034        2.21091
H          0.05470        3.50889        3.12415
H          0.36518        2.87507        4.74726
H          0.72950        4.56335        4.35985
H          1.38340        0.55502        1.46820
H          0.32606        1.41794        2.57843
H          0.71716        2.12796        1.00512
H          3.00318        5.69777        5.06348
H          2.19654        4.38015        5.92766
H          3.94051        4.57113        6.05610
H          3.91948       -0.04531        1.10985
H          2.98398        1.08228        0.11661
H          4.72806        1.27149        0.24618
H          6.20739        3.52442        5.16743
H          6.59769        4.23532        3.59433
H          5.54053        5.09743        4.70542
H          6.55876        2.77775        1.42593
H          6.86928        2.14392        3.04894
H          6.19455        1.08938        1.81321
