11
HEXACHLOROCYCLOPENTADIENE.gamout	Energy:   -2950.2857577
C         -3.05926       -0.72306        0.38697
C         -3.00360        0.73795        0.12731
C         -1.83968       -1.26127        0.18358
Cl        -4.48464       -1.54118        0.86848
C         -1.75065        1.08189       -0.23316
Cl        -4.35853        1.77423        0.27972
C         -0.87768       -0.16170       -0.23376
Cl        -1.36141       -2.89306        0.34303
Cl        -1.15207        2.62909       -0.63896
Cl         0.46707       -0.00123        0.95419
Cl        -0.21568       -0.47969       -1.87885
