27
HEXAMETHYLDISILOXANE.gamout	Energy:    -893.1751730
Si        -1.57276       -0.28466       -0.15119
Si         1.66000       -0.08578       -0.03239
O          0.06288       -0.25642       -0.49174
C         -2.10385        1.38449        0.54871
C         -2.47567       -0.63983       -1.76364
C         -1.93271       -1.64566        1.10454
C          2.71310       -0.30912       -1.57611
C          1.93353        1.63076        0.69959
C          2.09790       -1.40241        1.24578
H         -3.18462        1.39251        0.75982
H         -1.57870        1.60989        1.48938
H         -1.89446        2.20075       -0.15911
H         -2.16507       -1.60832       -2.18394
H         -3.56475       -0.67464       -1.60525
H         -2.26997        0.13886       -2.51367
H         -3.01105       -1.69672        1.32252
H         -1.62302       -2.63092        0.72372
H         -1.40894       -1.47077        2.05663
H          2.55631       -1.30366       -2.02064
H          2.46537        0.44636       -2.33703
H          3.78416       -0.21109       -1.34034
H          2.98984        1.76525        0.98098
H          1.67849        2.41950       -0.02433
H          1.32586        1.79141        1.60328
H          1.49387       -1.29925        2.16023
H          1.93756       -2.41544        0.84695
H          3.15703       -1.32037        1.53620
