15
HEXAFLUOROACETYLACETONE.gamout	Energy:    -940.1884339
C         -1.36647       -0.03724        0.62447
C          0.06373       -0.52551        0.46045
C          0.96018        0.52307       -0.19019
C         -2.29269       -0.24274       -0.61419
O         -1.80217        0.44603        1.63047
C          2.36524       -0.00376       -0.62349
O          0.66729        1.67123       -0.36488
F         -2.54089       -1.56464       -0.74789
F         -3.44503        0.39626       -0.48903
F         -1.67980        0.17068       -1.73766
F          3.13432        0.96946       -1.08516
F          2.98022       -0.58534        0.42558
F          2.21747       -0.93740       -1.58340
H          0.47252       -0.74113        1.45924
H          0.10402       -1.45543       -0.12691
