10
HEXACHLORO-1,3-BUTADIENE.gamout	Energy:   -2912.2200750
C          1.09119        0.91777        0.33518
C          1.93526        1.58182       -0.47963
Cl         0.88978       -0.79487        0.31655
Cl         0.11496        1.75423        1.49852
C          2.09095        3.04728       -0.47961
Cl         2.88503        0.73148       -1.67523
C          2.93501        3.71133        0.33520
Cl         1.14115        3.89758       -1.67522
Cl         3.13640        5.42397        0.31658
Cl         3.91127        2.87491        1.49854
