9
HEXAFLUOROPROPYLENE.gamout	Energy:    -712.5565499
C         35.02575       30.88318        0.16813
C         33.70036       30.17855        0.04813
C         36.22878       30.42663       -0.19765
F         34.93081       32.10306        0.71279
F         32.84379       30.90555       -0.69158
F         33.82822       28.97437       -0.51954
F         33.13715       30.01683        1.25940
F         37.32330       31.13280       -0.04394
F         36.46718       29.25796       -0.73753
