24
HEXAMETHYLENEDIAMINE.gamout	Energy:    -347.3129001
C         17.91383        0.00470        0.01824
C         19.25154        0.74305        0.01397
N         16.79360        0.94358       -0.02260
C         20.46469       -0.19122        0.01789
C         21.80570        0.54847        0.01811
C         23.01885       -0.38579        0.01379
C         24.35655        0.35257        0.01853
N         25.47680       -0.58628       -0.02267
H         17.85014       -0.63327       -0.87792
H         17.88058       -0.67816        0.89198
H         19.30021        1.40651        0.89594
H         19.28556        1.40151       -0.86892
H         15.89823        0.46776       -0.08807
H         16.76465        1.52919        0.80881
H         20.41625       -0.85326       -0.86399
H         20.41619       -0.85437        0.89916
H         21.85418        1.21121        0.89969
H         21.85423        1.21093       -0.86346
H         22.98492       -1.04382       -0.86942
H         22.97014       -1.04967        0.89545
H         24.38973        1.03502        0.89260
H         24.42034        0.99096       -0.87733
H         26.37218       -0.11042       -0.08783
H         25.50567       -1.17230        0.80846
