8
HEXACHLOROETHANE.gamout	Energy:   -2836.1237866
Cl         0.36081        1.74883        0.52379
C          1.04489        0.17163        0.02577
Cl         2.78926        0.37474       -0.31954
Cl         0.84689       -0.99967        1.36442
C          0.29608       -0.35706       -1.26926
Cl         0.49476        0.81387       -2.60814
Cl         0.97966       -1.93462       -1.76684
Cl        -1.44840       -0.55945       -0.92419
