32
HEXYL_NICOTINATE.gamout	Energy:    -671.8770318
O         -0.14427        0.55709        0.02591
O          0.82244        2.58965       -0.00716
N          3.45398       -1.41255        0.23522
C         -3.92007        0.60939       -0.09367
C         -4.98996       -0.48597       -0.09958
C         -2.49086        0.05932       -0.03943
C         -6.42197        0.05628       -0.14871
C         -1.45046        1.16488       -0.03346
C         -7.48905       -1.03977       -0.15434
C          0.91469        1.38158        0.03699
C          2.21442        0.64892        0.11132
C          3.40788        1.38321        0.12837
C          2.29679       -0.75277        0.16706
C          4.61650        0.69565        0.19893
C          4.58563       -0.70302        0.25034
H         -4.08842        1.27700        0.76902
H         -4.03950        1.23912       -0.99213
H         -4.82340       -1.15374       -0.96271
H         -4.87026       -1.11714        0.79809
H         -2.30957       -0.60124       -0.90248
H         -2.36302       -0.55977        0.86296
H         -6.58297        0.72432        0.71431
H         -6.53707        0.68901       -1.04496
H         -1.50934        1.78713       -0.93825
H         -1.56730        1.83097        0.83385
H         -8.50209       -0.61406       -0.18884
H         -7.37271       -1.70144       -1.02652
H         -7.41818       -1.66594        0.74842
H          3.36406        2.47213        0.08592
H          1.38564       -1.35343        0.15609
H          5.56889        1.22710        0.21440
H          5.51699       -1.27438        0.30653
