20
HISTIDINE.gamout	Energy:    -548.1110104
O         -2.14724       -1.78176       -0.64775
O         -1.43768       -1.03776        1.34288
N          1.39618       -0.33000        0.87690
N         -2.80531        1.17096       -0.48127
N          3.15742        0.11370       -0.39237
C         -0.34420        1.34066        0.08298
C         -1.50145        0.51617       -0.53002
C          1.00933        0.70252        0.04213
C         -1.67284       -0.83391        0.17065
C          2.12651        0.95549       -0.73071
C          2.68918       -0.64586        0.57257
H         -0.61734        1.59623        1.12022
H         -0.28938        2.28636       -0.47421
H         -1.27981        0.30242       -1.58494
H          0.79200       -0.78556        1.55051
H          2.23457        1.71367       -1.50360
H         -2.89619        1.90422       -1.17698
H         -3.00543        1.56290        0.43560
H          3.23079       -1.43889        1.08367
H         -2.28845       -2.59179       -0.13144
