31
HMIM+1.gamout	Energy:    -501.1336923
C          2.16363        0.59007        1.41154
C          3.62417        0.25819        1.08840
N          3.96985       -1.14167        1.40662
H          4.31778        0.89377        1.65319
H          3.83375        0.40543        0.02136
C          4.01985       -2.15722        0.53902
C          4.39173       -2.98370        2.54931
C          4.19981       -1.63614        2.67287
C          4.42602       -4.61989        0.61340
H          4.21055       -0.99843        3.54906
N          4.27456       -3.28863        1.20945
H          3.87706       -2.07728       -0.53397
H          4.60216       -3.74062        3.29625
H          3.59337       -4.81462       -0.07280
H          4.41285       -5.36190        1.41694
H          5.37846       -4.68845        0.07191
C          1.14905       -0.21855        0.59930
H          2.03631        1.66513        1.21424
H          1.98546        0.45382        2.49049
C         -0.31189        0.14833        0.88091
H          1.28155       -1.29541        0.80332
H          1.35535       -0.07957       -0.47631
C         -1.29905       -0.70914        0.08348
C         -2.76120       -0.37401        0.37651
H         -2.99027        0.67261        0.12401
H         -2.99390       -0.51905        1.44262
H         -3.44000       -1.01340       -0.20445
H         -1.09785       -0.58334       -0.99388
H         -1.11504       -1.77492        0.30605
H         -0.47606        1.21255        0.64215
H         -0.52313        0.04273        1.95911
