36
HMPYR+1.gamout	Energy:    -487.4817099
N          0.34086       -0.16592       -0.32911
C         -0.51913        1.07411       -0.21581
C          1.40762        0.07524        0.72598
C          1.68866        1.58554        0.70398
H          2.27102       -0.55976        0.50675
H          0.97614       -0.24097        1.68149
C          0.46284        2.22536       -0.00031
H         -1.16196        0.92608        0.65948
H         -1.15597        1.16283       -1.09897
H         -0.00394        3.01418        0.60009
H          0.74853        2.68084       -0.95610
H          2.61846        1.81262        0.16958
H          1.81363        1.95420        1.72838
C         -0.43080       -1.40762       -0.03002
H         -0.85248       -1.32753        0.97632
H          0.24575       -2.26610       -0.08496
H         -1.23832       -1.52878       -0.75584
C          1.01230       -0.28046       -1.69166
C          0.07414       -0.31045       -2.90666
H          1.60907       -1.19607       -1.62696
H          1.71275        0.55758       -1.76426
C          0.04833        0.98226       -3.73209
H         -0.94908       -0.58646       -2.61196
H          0.40706       -1.13016       -3.55804
C         -0.86874        0.85995       -4.95307
H          1.07385        1.20991       -4.06705
H         -0.26785        1.83482       -3.11025
C         -0.80984        2.04549       -5.92184
H         -1.90896        0.71439       -4.61251
H         -0.59582       -0.05709       -5.49670
C         -1.30231        3.37579       -5.34779
H         -1.41796        1.79193       -6.80287
H          0.22300        2.15800       -6.29041
H         -2.30015        3.26773       -4.89478
H         -1.37771        4.13392       -6.13843
H         -0.62340        3.78181       -4.58342
