6
HYDRAZINE.gamout	Energy:    -111.7278946
N          1.85385        0.90170       -0.01407
N          0.48488        0.87396        0.52195
H          2.25644        1.77364        0.33167
H          2.35850        0.18601        0.51037
H         -0.01913        1.59169       -0.00030
H          0.08138        0.00343        0.17367
