9
IMIDAZOLE.gamout	Energy:    -225.9375145
N          0.73955       -0.89942       -0.00000
N         -1.14518        0.26149       -0.00012
C          1.10722        0.42958       -0.00000
C         -0.62680       -0.94490       -0.00008
C         -0.07898        1.12863       -0.00008
H          1.36366       -1.69313        0.00007
H          2.14496        0.74560        0.00008
H         -1.17789       -1.88278       -0.00009
H         -0.21735        2.20648       -0.00009
