19
INDANE.gamout	Energy:    -348.5192202
C          3.34402        3.20708        0.88829
C          3.34821        1.80610        0.88805
C          4.75036        3.76545        0.88777
C          2.13464        3.90936        0.88902
C          4.75794        1.25620        0.88643
C          2.14307        1.09657        0.88873
C          5.67829        2.51363        0.89176
C          0.92921        3.20028        0.88964
C          0.93341        1.79839        0.88959
H          4.92201        4.40344        0.00582
H          4.92088        4.40837        1.76630
H          2.12802        5.00193        0.88932
H          4.93279        0.61297        1.76386
H          4.93316        0.62076        0.00335
H          2.14290        0.00398        0.88886
H          6.34169        2.51617        0.01648
H          6.33224        2.51521        1.77415
H         -0.02002        3.73954        0.89034
H         -0.01250        1.25333        0.89018
