17
INDENE.gamout	Energy:    -347.3031524
C          2.69299        1.60034        2.04767
C          2.11225        2.84119        2.40339
C          1.86569        0.97681        0.94746
C          3.84231        1.14709        2.68800
C          0.92519        3.04697        1.56473
C          2.68665        3.63100        3.40582
C          0.77049        1.99552        0.73042
C          4.41645        1.94083        3.69245
C          3.84309        3.16954        4.04588
H          2.45490        0.80494        0.02919
H          1.45906       -0.00810        1.23815
H          4.29580        0.19044        2.41825
H          0.27679        3.92172        1.61888
H          2.24438        4.58930        3.68573
H         -0.02384        1.87327       -0.00598
H          5.31825        1.59825        4.20350
H          4.30429        3.77310        4.83013
