16
INDOLE.gamout	Energy:    -363.3525734
C          0.75657        1.62744        0.48784
C          1.77080        0.62615        0.43147
C         -0.44397        0.97954        0.94771
C          1.08512        2.94704        0.11747
N          1.19506       -0.56056        0.83991
C          3.08057        0.91011        0.02056
C         -0.13539       -0.34376        1.14862
C          2.38370        3.23241       -0.29057
C          3.37209        2.22328       -0.33852
H         -1.41513        1.43948        1.10886
H          0.32891        3.73390        0.15113
H          1.66882       -1.44856        0.90362
H          3.84566        0.13214       -0.01723
H         -0.76163       -1.16304        1.49162
H          2.64815        4.25108       -0.57934
H          4.38254        2.47825       -0.66328
