12
IODOBENZENE.gamout	Energy:    -529.0384040
I         -1.34357       -0.00000       -0.00004
C          0.78827        0.00001       -0.00010
C          1.47739        1.21630        0.00018
C          2.87656        1.20846        0.00044
C          3.57883       -0.00001       -0.00057
C          2.87654       -1.20846       -0.00081
C          1.47737       -1.21629        0.00167
H          0.93255        2.15999        0.00035
H          3.41490        2.15820        0.00106
H          4.67004       -0.00003       -0.00102
H          3.41484       -2.15823       -0.00132
H          0.93251       -2.15997        0.00120
