20
ISO-CAPROIC_ACID.gamout	Energy:    -385.8550269
C          1.71223        1.51037       -0.09245
C          2.97854        0.65777       -0.02412
C          1.96812        3.02830       -0.06175
C          2.70775       -0.82636        0.06602
C          2.77039        3.51836       -1.27594
C          0.64081        3.78932        0.05648
O          3.85782       -1.54173        0.08132
O          1.62387       -1.35514        0.12268
H          1.14532        1.25074       -1.00094
H          1.06338        1.23509        0.75205
H          3.59037        0.92986        0.85251
H          3.63497        0.81088       -0.89430
H          2.55852        3.24829        0.84654
H          2.91828        4.60696       -1.23376
H          3.76577        3.05645       -1.33464
H          2.23656        3.28935       -2.21193
H          0.80999        4.87348        0.12571
H          0.07961        3.47608        0.94871
H          0.00214        3.60723       -0.82228
H          3.62202       -2.48083        0.14541
