24
ISO-BUTYLBENZENE.gamout	Energy:    -388.9797033
C         -4.24216        1.59059       -2.77746
C         -5.37229        1.03245       -3.39949
C         -4.41754        2.75141       -2.00889
C         -6.63558        1.60981       -3.25173
C         -5.68044        3.33364       -1.85728
C         -6.79515        2.76422       -2.47804
H         -5.26004        0.13524       -4.01274
H         -3.55293        3.20755       -1.52223
H         -7.49898        1.16008       -3.74631
H         -5.79243        4.23646       -1.25351
H         -7.78121        3.21798       -2.36339
C         -2.88103        0.94849       -2.93873
H         -2.10150        1.65409       -2.60876
H         -2.69635        0.75930       -4.00853
C         -2.70010       -0.38201       -2.16784
H         -3.52648       -1.04824       -2.47017
C         -2.79232       -0.18173       -0.65057
C         -1.38101       -1.05674       -2.56301
H         -0.51958       -0.42680       -2.28843
H         -1.33110       -1.23783       -3.64697
H         -1.26134       -2.02281       -2.05157
H         -3.76856        0.22546       -0.35365
H         -2.01551        0.51768       -0.30147
H         -2.64540       -1.13342       -0.12000
