26
ISOAMYL_PROPIONATE.gamout	Energy:    -464.3621868
O          4.12911        3.25983        1.59816
C          3.07221        2.52984        2.00503
C          2.07920        2.33029        0.87826
O          2.94783        2.10118        3.12902
C          5.17204        3.53852        2.55874
C          0.85060        1.52330        1.28548
C          6.21433        2.42792        2.61226
C          6.92359        2.10641        1.28304
C          7.81219        0.86595        1.44697
C          7.73490        3.29386        0.74661
H          1.80193        3.32874        0.50509
H          2.61920        1.84938        0.04720
H          4.71360        3.67775        3.54550
H          5.60292        4.48986        2.22615
H          0.30896        2.01580        2.10393
H          0.16601        1.41194        0.43347
H          1.13482        0.52181        1.63514
H          6.96521        2.72292        3.36599
H          5.72916        1.51956        2.99913
H          6.14391        1.86756        0.54093
H          8.29023        0.59086        0.49585
H          8.61176        1.05295        2.18141
H          7.23198       -0.00014        1.79714
H          7.10463        4.17049        0.54291
H          8.23911        3.02919       -0.19389
H          8.51199        3.59410        1.46791
