15
ISOBUTANOL.gamout	Energy:    -233.3652133
C          2.67002        2.34038        0.99146
C          1.52224        2.15574        1.98239
C          0.85147        0.79470        1.76716
C          1.99365        2.33205        3.42847
O          3.22217        3.64342        1.14610
H          3.44077        1.56666        1.17388
H          2.29428        2.20020       -0.03813
H          0.78461        2.94566        1.75916
H          0.48387        0.68086        0.73660
H         -0.00538        0.67125        2.44456
H          1.55307       -0.03067        1.96855
H          2.44815        3.31883        3.57849
H          2.74384        1.56799        3.69020
H          1.15162        2.22709        4.12759
H          3.95170        3.76703        0.53044
