17
ISOBUTYL_FORMATE.gamout	Energy:    -346.5695704
C         -0.08962        0.88751        0.39120
C          1.07596        1.70025       -0.18788
C          0.64386        3.15540       -0.37391
C          2.33733        1.58741        0.67563
O          1.65730        3.90557       -1.06088
C          2.17255        5.00694       -0.49683
O          3.01496        5.67749       -1.02208
H          0.18753       -0.17142        0.48534
H         -0.36674        1.24825        1.39448
H         -0.98347        0.94485       -0.24745
H          1.30660        1.30781       -1.19229
H         -0.26732        3.21502       -0.98553
H          0.43487        3.62633        0.60234
H          3.17461        2.14954        0.24123
H          2.65075        0.53842        0.76927
H          2.15334        1.97268        1.69165
H          1.74017        5.23216        0.50489
