30
ISOBUTYLCYCLOHEXANE.gamout	Energy:    -392.5761814
C          5.80330        1.89005        1.97822
C          4.47709        1.47181        2.64349
C          3.31669        2.47466        2.55428
C          6.39495        3.15563        2.61326
C          6.81267        0.73490        2.02675
C          2.07852        1.97813        3.31821
C          2.93079        2.80720        1.08897
C          0.99024        3.06993        3.42079
C          1.46166        3.26247        0.93737
C          0.97781        4.00364        2.18783
H          5.60270        2.10629        0.91491
H          4.14403        0.51781        2.19906
H          4.67624        1.25713        3.70827
H          3.63855        3.40911        3.04471
H          7.34928        3.42745        2.13863
H          5.72342        4.02000        2.51861
H          6.58953        2.99695        3.68625
H          7.75515        1.00814        1.52988
H          7.05002        0.46609        3.06870
H          6.41750       -0.16404        1.53101
H          1.67699        1.09225        2.79776
H          2.36421        1.63437        4.32363
H          3.60104        3.59162        0.70579
H          3.10532        1.92152        0.45678
H          0.00583        2.59061        3.53632
H          1.14733        3.66819        4.33180
H          1.35258        3.89270        0.04272
H          0.81514        2.38484        0.77173
H         -0.02975        4.41631        2.03149
H          1.63761        4.86872        2.36688
