14
ISOBUTYRIC_ACID.gamout	Energy:    -307.3365411
C          0.06650       19.86984       -0.12107
C          1.33002       20.73731        0.01065
C          0.99627       22.23894        0.03952
C          2.14948       20.33624        1.22598
O          3.27459       19.89693        1.19918
O          1.48285       20.52504        2.38961
H         -0.46521       20.13173       -1.04680
H          0.31512       18.79998       -0.16278
H         -0.61446       20.03430        0.72538
H          1.99326       20.53594       -0.84223
H          1.90552       22.85124        0.12033
H          0.47742       22.52114       -0.88753
H          0.33978       22.48038        0.88697
H          2.06719       20.25002        3.11357
