21
ISOBUTYL_ACRYLATE.gamout	Energy:    -423.8770576
O          4.41874        1.75836        1.95129
C          3.27331        1.08660        2.17780
C          2.13550        1.71420        1.45173
O          3.20261        0.10355        2.88233
C          5.60749        1.26329        2.59487
C          0.89940        1.21211        1.53072
C          6.79012        2.13590        2.18621
C          7.03844        2.08791        0.67337
C          8.03483        1.71441        2.97870
H          2.36189        2.60002        0.85555
H          5.44893        1.28066        3.68267
H          5.75900        0.21405        2.29817
H          0.06607        1.67241        0.99850
H          0.69991        0.32451        2.13434
H          6.53866        3.17344        2.46457
H          6.14668        2.39543        0.11196
H          7.30659        1.06785        0.35514
H          7.86585        2.75493        0.39293
H          8.31603        0.67472        2.74875
H          8.89099        2.35461        2.72445
H          7.86958        1.78733        4.06367
