27
ISOBUTYLCYCLOPENTANE.gamout	Energy:    -353.3122465
C          4.62656        1.99995        3.61597
C          3.37863        2.67310        2.99706
C          2.98971        2.23537        1.56442
C          4.51214        0.47298        3.72833
C          5.92161        2.40337        2.89440
C          2.26107        3.35111        0.78470
C          1.93348        1.10353        1.53465
C          0.80871        3.30375        1.30276
C          0.56022        1.81452        1.67854
H          4.69821        2.39480        4.64433
H          3.56085        3.76008        3.00235
H          2.52369        2.51166        3.67341
H          3.89713        1.93216        1.02217
H          3.60765        0.17495        4.27880
H          5.38005        0.05776        4.26121
H          4.47615       -0.00204        2.73670
H          6.02860        3.49750        2.84935
H          5.95034        2.02061        1.86292
H          6.80199        2.00026        3.41640
H          2.73045        4.33789        0.90656
H          2.28129        3.11231       -0.29074
H          1.98606        0.58841        0.56307
H          2.09430        0.34201        2.30708
H          0.09054        3.67722        0.56009
H          0.70399        3.94331        2.19163
H          0.17808        1.73119        2.70594
H         -0.19426        1.34930        1.02950
