16
ISOBUTYLAMINE.gamout	Energy:    -213.5133165
C          2.02648        2.75959        1.66586
N          0.75969        2.06618        1.43928
C          3.21925        1.97891        1.09038
C          3.38275        0.60670        1.75331
C          4.50530        2.80896        1.18922
H          2.03853        3.78505        1.24550
H          2.16273        2.86729        2.75495
H         -0.01348        2.51441        1.92211
H          0.52222        2.03418        0.45049
H          3.00922        1.81651        0.01642
H          4.17626        0.02421        1.26201
H          3.66145        0.72277        2.81347
H          2.44959        0.03062        1.71111
H          4.75747        3.01992        2.24098
H          5.35661        2.27169        0.74650
H          4.40653        3.77233        0.66681
