14
ISOBUTANE.gamout	Energy:    -158.2306039
C          2.68424        1.23778        0.70787
C          1.99356        0.97504        2.05276
C          2.32170        2.07302        3.07316
C          0.47829        0.80818        1.88037
H          2.48229        0.42964       -0.01105
H          3.77481        1.31850        0.82867
H          2.32734        2.17973        0.26044
H          2.39184        0.02367        2.44825
H          1.85933        1.86163        4.04904
H          1.94629        3.05082        2.73049
H          3.40723        2.16640        3.22568
H          0.02640        1.73114        1.48241
H         -0.01096        0.58414        2.84017
H          0.24227       -0.00766        1.18099
