13
ISOBUTYRALDEHYDE.gamout	Energy:    -232.1589918
C          0.90189       -0.00084       -0.37884
C         -0.44002       -0.00042        0.32622
C         -1.21572        1.27439       -0.04666
C         -1.21688       -1.27462       -0.04623
O          1.97812        0.00125        0.16812
H          0.84000       -0.00281       -1.49962
H         -0.22792       -0.00031        1.40598
H         -1.42050        1.31454       -1.12806
H         -2.18368        1.29589        0.47498
H         -0.65875        2.18033        0.23131
H         -0.66071       -2.18100        0.23192
H         -2.18480       -1.29514        0.47552
H         -1.42181       -1.31488       -1.12759
