20
ISOBUTYL_ACETATE.gamout	Energy:    -385.8459431
C          3.33510        1.80698        1.50507
O          3.99036        3.08519        1.39345
C          1.90836        1.94767        0.98257
C          5.25671        3.17410        1.84292
C          1.24720        0.56644        0.88732
C          1.07966        2.91824        1.83296
C          5.82854        4.55116        1.61563
O          5.85026        2.24729        2.34382
H          3.35529        1.48723        2.55820
H          3.90627        1.06860        0.92401
H          1.98432        2.36123       -0.03761
H          1.17824        0.08732        1.87674
H          0.22675        0.65479        0.48892
H          1.80998       -0.10735        0.22453
H          0.08152        3.06366        1.39606
H          0.94626        2.52695        2.85428
H          1.56577        3.89997        1.90547
H          6.68907        4.70286        2.27527
H          6.16611        4.62835        0.57082
H          5.06964        5.32619        1.78063
