29
ISOBUTYL_VALERATE.gamout	Energy:    -503.6221988
O          6.95883        2.04335        1.29750
C          5.76125        2.38147        1.81274
C          4.65714        1.51083        1.25045
O          5.61654        3.26597        2.62446
C          8.10623        2.78221        1.75589
C          3.25620        1.90926        1.70874
C          9.35362        2.22891        1.07399
C          2.16647        0.99239        1.14459
C         10.56570        3.09512        1.44142
C          9.58559        0.75268        1.41973
C          0.75714        1.38085        1.59437
H          4.88572        0.47133        1.54017
H          4.74188        1.52990        0.15213
H          8.17419        2.69157        2.85085
H          7.95628        3.84530        1.52019
H          3.05814        2.95134        1.41185
H          3.22125        1.90135        2.80889
H          9.18994        2.30913       -0.01401
H          2.37530       -0.04764        1.44836
H          2.21604        1.00163        0.04255
H         10.41513        4.14620        1.15494
H         11.46954        2.73362        0.93187
H         10.76069        3.06506        2.52483
H          8.71779        0.13764        1.14941
H          9.76697        0.63027        2.49942
H         10.46249        0.35991        0.88607
H          0.66737        1.34585        2.69073
H          0.50478        2.40322        1.27409
H          0.00133        0.70231        1.17407
