12
ISOBUTENE.gamout	Energy:    -157.0075305
C          0.96164        0.98776        1.38175
C          2.10009        1.88692        0.97610
C          3.47445        1.42668        1.38611
C          1.90267        3.02332        0.29464
H          1.07623       -0.01569        0.93846
H          0.94261        0.84745        2.47562
H         -0.00919        1.39381        1.06945
H          3.54281        1.32616        2.48242
H          3.69853        0.43169        0.96595
H          4.25354        2.12480        1.05434
H          2.73677        3.66558        0.00686
H          0.90134        3.34602        0.00451
