10
ISOCROTONOLACTONE.gamout	Energy:    -304.8993387
O         -0.01325        1.12093       -0.00029
O         -2.00251        0.04099        0.00020
C          1.36578        0.75996       -0.00042
C          1.37235       -0.74042       -0.00019
C          0.10848       -1.18025        0.00008
C         -0.80260       -0.00586        0.00002
H          1.85164        1.18847        0.89201
H          1.85141        1.18821       -0.89310
H          2.28501       -1.33624       -0.00020
H         -0.25860       -2.20374        0.00029
