16
ISOPROPYL_METHYL_KETONE.gamout	Energy:    -271.4278812
C          0.99040       -0.06594        0.02506
C          0.23274       -0.44502        1.29795
C         -0.61122       -1.71164        1.03872
C          1.16661       -0.61213        2.49605
C          0.17868        0.44323       -1.15678
O          2.19696       -0.17164       -0.05984
H         -0.47058        0.38485        1.49425
H          0.04085       -2.56929        0.81546
H         -1.30862       -1.58356        0.19934
H         -1.20217       -1.95850        1.93216
H          1.86623       -1.44315        2.33276
H          0.58608       -0.82089        3.40593
H          1.76448        0.29346        2.66422
H         -0.88845        0.56903       -0.93387
H          0.29186       -0.25803       -1.99658
H          0.60031        1.40483       -1.48143
