13
ISOPRENE.gamout	Energy:    -195.0439053
C          1.41689        2.76247       -0.61269
C          2.56216        2.03536       -1.17404
C          2.48122        0.53527       -1.28840
C          3.65440        2.71604       -1.57293
C          0.26925        2.21795       -0.17733
H          1.53615        3.84872       -0.55540
H          1.63251        0.23217       -1.92215
H          3.39943        0.12150       -1.72260
H          2.32629        0.07103       -0.30129
H          4.52246        2.20733       -1.99418
H          3.70626        3.80278       -1.48676
H          0.08379        1.14291       -0.20542
H         -0.52896        2.84209        0.22571
