29
ISOPENTYL_BUTYRATE.gamout	Energy:    -503.6180185
C         -3.64640       -0.19577       -0.32801
C         -2.38594        0.65644       -0.17559
H         -3.40818       -1.18386       -0.75100
H         -4.37145        0.28962       -0.99670
H         -4.14054       -0.35678        0.64253
C         -1.34354        0.00902        0.75093
H         -2.65312        1.64908        0.22158
H         -1.92162        0.82699       -1.15802
C         -0.07110        0.82490        0.83689
H         -1.05933       -0.97631        0.34729
H         -1.75101       -0.14563        1.75889
C          1.40449        1.97307        2.33057
C          1.09960        3.46623        2.25781
C          2.29445        4.39564        2.56336
H          0.28325        3.68471        2.96441
H          0.71841        3.68809        1.24965
C          2.80751        4.24602        4.00372
H          3.56440        5.01118        4.22885
H          3.27909        3.26528        4.16966
H          1.99157        4.35612        4.73388
C          3.43346        4.25427        1.54224
H          1.89913        5.42107        2.46680
H          4.20415        5.01933        1.71484
H          3.06476        4.36985        0.51271
H          3.92571        3.27259        1.61410
O          0.20776        1.19766        2.10062
H          1.73590        1.67296        3.33183
H          2.16007        1.67556        1.59366
O          0.62118        1.11178       -0.11386
