13
ISOPROPYLAMINE.gamout	Energy:    -174.2568243
C         -1.03238       -0.18624       -0.14695
C         -0.99597       -1.69438        0.11207
H         -0.10984       -2.14381       -0.35544
H         -1.89610       -2.18768       -0.28215
H         -0.95095       -1.89873        1.19462
C         -2.28970        0.46237        0.45293
H         -3.20790        0.01370        0.04207
H         -2.31596        1.54211        0.24248
H         -2.31003        0.32917        1.54692
N          0.22694        0.40906        0.31481
H         -1.05651       -0.02911       -1.23876
H          0.28678        1.39514        0.07349
H          0.31819        0.34197        1.32747
