24
ISOPROPYLCYCLOPENTANE.gamout	Energy:    -314.0593480
C         -1.02524        0.86679       -0.00242
C         -1.15602       -0.68330       -0.06259
C          0.28263       -1.22267       -0.22438
C          1.19903       -0.11445        0.33487
C          0.48368        1.16962       -0.13405
H         -1.60903        1.36210       -0.79063
H         -1.40878        1.24947        0.95445
H         -1.60762       -1.06901        0.86290
H         -1.80660       -1.01207       -0.88485
H          0.42475       -2.19102        0.27309
H          0.51695       -1.37018       -1.29221
H          1.14918       -0.15093        1.44036
C          2.68063       -0.22578       -0.07337
H          0.74583        1.35833       -1.18888
H          0.78261        2.05959        0.43520
H          2.70920       -0.20332       -1.17866
C          3.30297       -1.55199        0.38715
C          3.51007        0.95986        0.44131
H          3.48653        1.00358        1.54215
H          3.13883        1.91978        0.05826
H          4.56208        0.86208        0.13608
H          2.78366       -2.42095       -0.03885
H          3.26344       -1.63878        1.48485
H          4.35922       -1.61337        0.08711
