23
ISOPROPYL_N-BUTYRATE.gamout	Energy:    -425.1082920
C         -0.24133        0.19187       -0.20771
C         -1.51131       -0.48868        0.26052
C         -2.79396        0.22907       -0.15648
C         -4.05479       -0.48632        0.33263
O         -0.19267        1.21193       -0.85651
O          0.84697       -0.49079        0.19499
C          2.16130        0.01260       -0.16963
C          2.62772        1.01587        0.87892
C          3.06466       -1.20472       -0.29825
H         -1.49362       -1.52303       -0.12115
H         -1.44941       -0.58712        1.35705
H         -2.77107        1.26009        0.22756
H         -2.81321        0.32188       -1.25284
H         -4.07447       -0.55853        1.43139
H         -4.96038        0.05086        0.01728
H         -4.11586       -1.50988       -0.06905
H          2.05953        0.51876       -1.13916
H          2.69960        0.53719        1.86643
H          3.61965        1.40637        0.60927
H          1.93269        1.86303        0.94080
H          2.67713       -1.89826       -1.05637
H          4.07486       -0.89161       -0.59684
H          3.13595       -1.73807        0.66052
