17
ISOPENTANE.gamout	Energy:    -197.4881296
C          3.33216        1.94397        2.59194
C          2.15429        1.07225        2.11385
C          2.37771        0.59745        0.67178
C          0.80407        1.79173        2.24860
C          3.36087        2.22342        4.09696
H          4.27423        1.44864        2.30527
H          3.31206        2.89854        2.03705
H          2.12413        0.17716        2.76162
H          3.30312        0.00918        0.58404
H          2.45941        1.45592       -0.01443
H          1.54368       -0.02900        0.32288
H          0.77414        2.68325        1.60173
H         -0.02439        1.13312        1.94855
H          0.61043        2.11716        3.27992
H          2.46927        2.77283        4.43154
H          3.41149        1.28494        4.67099
H          4.23907        2.82696        4.36852
