18
ISOPROPYLCYCLOPROPANE.gamout	Energy:    -235.5124957
C          2.50418        0.93315        3.95914
C          2.04598        2.13079        3.11595
C          0.52788        2.11778        2.89093
C          2.79552        2.18754        1.79305
C          2.99412        3.49799        1.07753
C          4.17147        2.79629        1.71507
H          2.27289       -0.01492        3.44771
H          1.99893        0.91631        4.93643
H          3.58895        0.96396        4.13573
H          2.29913        3.05236        3.67022
H          0.20495        2.99380        2.31025
H         -0.01833        2.12098        3.84617
H          0.22400        1.21623        2.33540
H          2.62505        1.31778        1.14930
H          2.92640        3.51684       -0.01129
H          2.61943        4.40245        1.56227
H          4.91404        2.33186        1.06447
H          4.58564        3.23104        2.62737
