17
ISOPROPYL_ACETATE.gamout	Energy:    -346.5908887
O          3.20119        0.99395        1.79865
C          1.99084        1.74426        2.09623
C          4.39001        1.60498        1.95827
C          0.94399        0.71813        2.50298
C          1.59374        2.57793        0.88409
C          5.53456        0.67268        1.64560
O          4.51419        2.74948        2.33044
H          2.22259        2.40914        2.93972
H          1.28560        0.13666        3.36973
H          0.73862        0.02360        1.67575
H          0.00654        1.22481        2.77085
H          1.44246        1.93155        0.00721
H          0.65313        3.10931        1.08860
H          2.36558        3.32230        0.65093
H          5.28803        0.01070        0.80629
H          5.72586        0.04032        2.52581
H          6.43509        1.25752        1.43152
