13
ISOPRENE.gamout	Energy:    -195.0387180
C          1.80298        2.12742        1.26752
C          3.25622        2.11947        1.54915
C          4.02528        0.94864        0.98359
C          3.85301        3.07844        2.27894
C          1.04116        3.21188        1.06581
H          1.33135        1.14038        1.19131
H          3.94367        0.91641       -0.11527
H          3.61665       -0.00387        1.36031
H          5.08872        0.99592        1.25170
H          4.92938        3.06680        2.46022
H          3.28382        3.89369        2.72864
H          1.46290        4.21960        1.07312
H         -0.02966        3.12341        0.87595
