16
ISOPHTHALATE-2.gamout	Energy:    -607.4918437
O         -2.56809        1.88586       -0.00045
O          2.56788        1.88548        0.00013
O         -3.62947       -0.10557       -0.00018
O          3.62956       -0.10592        0.00038
C         -1.23389       -0.11335       -0.00063
C          1.23408       -0.11372       -0.00022
C          0.00017        0.56676       -0.00054
C         -1.21413       -1.51756        0.00033
C          1.21397       -1.51791        0.00036
C         -0.00016       -2.21278        0.00108
C         -2.60290        0.63052       -0.00054
C          2.60296        0.63018        0.00000
H          0.00016        1.65662        0.00009
H         -2.17526       -2.03649       -0.00059
H          2.17508       -2.03704       -0.00080
H         -0.00047       -3.30959        0.00107
