17
ISOQUINOLINE.gamout	Energy:    -401.4085395
C         -1.93185        2.42486       -1.64125
C         -0.82129        1.56538       -1.85090
C         -2.91254        2.08199       -0.73452
C         -0.70516        0.37995       -1.15564
C         -1.70081       -0.00122       -0.21309
C         -2.82036        0.86710       -0.00263
C         -3.80109        0.45915        0.94794
C         -1.65934       -1.20255        0.54542
C         -2.67537       -1.47909        1.43419
N         -3.73881       -0.65764        1.63652
H         -2.00439        3.35823       -2.20231
H         -0.05230        1.84946       -2.57194
H         -3.76966        2.73815       -0.56784
H          0.15063       -0.27781       -1.32018
H         -4.66761        1.10616        1.12762
H         -0.82766       -1.89899        0.42301
H         -2.66235       -2.39698        2.02722
