17
ISOVALERIC_ACID.gamout	Energy:    -346.5968914
C         34.92152       30.07913       -0.03682
C         33.64824       29.22305       -0.08283
C         34.68034       31.56212        0.13930
C         32.83088       29.48659       -1.35455
C         34.00040       27.73633        0.05696
O         35.79677       32.28303       -0.11842
O         33.64829       32.08255        0.48850
H         35.56293       29.77461        0.80768
H         35.53992       29.93522       -0.93723
H         33.03194       29.51464        0.78228
H         31.91085       28.88507       -1.35551
H         32.54092       30.54232       -1.43473
H         33.40799       29.21549       -2.25345
H         33.09156       27.11829        0.05252
H         34.53974       27.53570        0.99460
H         34.63664       27.39827       -0.77633
H         35.59046       33.21788        0.04151
