8
ISOXAZOLE.gamout	Energy:    -245.7331425
C          2.76795        0.93838        0.02372
C          1.34277        0.87535        0.06583
C          0.97937        2.18993        0.06461
N          3.20439        2.17342       -0.00018
O          2.06931        2.97076        0.02562
H          3.48810        0.12224        0.01020
H          0.70228       -0.00049        0.09248
H          0.02184        2.70251        0.08789
