32
KETOROLAC.gamout	Energy:    -858.7925474
O         -2.93330        1.85121        0.11405
O         -4.94480        0.93908        0.51670
O          2.09968       -2.12538       -1.41319
N         -0.76619       -0.63938        0.20652
C         -2.96132       -0.35880        1.03390
C         -1.92516       -0.00606        2.14809
C         -0.55911        0.12813        1.43440
C         -2.07159       -0.95231       -0.02417
C          0.03474       -1.24612       -0.74886
C         -2.15589       -1.75743       -1.15475
C         -0.82865       -1.94980       -1.59928
C         -3.74236        0.85152        0.53566
C          1.50291       -1.22836       -0.82746
C          2.28506       -0.09622       -0.21848
C          1.87772        1.24024       -0.35611
C          3.50885       -0.38121        0.40971
C          2.67762        2.27539        0.13575
C          4.29636        0.65172        0.91846
C          3.88279        1.98230        0.78150
H         -3.71774       -1.06969        1.38671
H         -1.89149       -0.83709        2.86452
H         -2.18867        0.90192        2.70280
H         -0.32396        1.17342        1.20116
H          0.26964       -0.28511        2.02113
H         -3.06342       -2.16310       -1.59292
H         -0.49217       -2.53736       -2.44862
H         -3.49591        2.57857       -0.19495
H          0.94716        1.46963       -0.87774
H          3.83239       -1.42040        0.47933
H          2.36228        3.31281        0.00966
H          5.24113        0.42154        1.41429
H          4.50334        2.79094        1.17183
