13
L-ALANINE.gamout	Energy:    -323.3617623
C          3.10073        2.84151        1.81337
C          1.97279        2.10814        1.10301
C          2.10637        0.59342        1.37942
N          0.70895        2.70167        1.50756
O          4.26825        2.74979        1.14385
O          2.99811        3.41226        2.87197
H          2.11752        2.27195        0.02268
H          2.01387        0.38844        2.45590
H          1.30398        0.05672        0.85268
H          3.06820        0.20044        1.01965
H         -0.08214        2.10692        1.28195
H          0.69965        2.90886        2.50358
H          4.95053        3.19817        1.66877
