31
L-MENTHOL.gamout	Energy:    -467.7230414
C         -4.95192        2.78524        1.02628
C         -4.62782        2.36572       -0.41534
H         -5.42295        1.96263        1.58316
H         -5.65629        3.62952        1.02699
H         -4.05666        3.10668        1.57822
C         -5.90100        1.93580       -1.16011
H         -6.36412        1.06334       -0.68390
H         -5.67868        1.67273       -2.20489
H         -6.63452        2.75614       -1.17206
C         -3.47235        1.32868       -0.52564
H         -4.25427        3.26656       -0.93290
C         -2.09492        2.01424       -0.41363
C         -0.92615        1.04209       -0.59825
H         -2.00668        2.50298        0.57142
H         -2.03613        2.81747       -1.16300
C         -0.99522       -0.13705        0.38441
H          0.03160        1.57223       -0.48067
H         -0.94151        0.64674       -1.62911
C         -2.36870       -0.81631        0.26981
C         -3.53326        0.15980        0.47254
H         -2.44560       -1.63297        1.00787
H         -2.47305       -1.27653       -0.72751
H         -3.53557        0.87804       -1.53214
C          0.15258       -1.12853        0.17765
H         -0.90924        0.27559        1.40683
H          1.12853       -0.63093        0.27699
H          0.10633       -1.57733       -0.82713
H          0.11697       -1.94691        0.91202
O         -4.78911       -0.50426        0.32351
H         -3.46299        0.57361        1.49657
H         -4.80716       -1.28476        0.88860
