23
L-PHENYLALANINE.gamout	Energy:    -554.1084866
C          6.33273        1.82532       -0.64037
C          7.35801        2.93574       -0.72197
C          6.68253        0.58709       -0.07804
C          5.02240        1.99465       -1.11696
C          7.19358        4.02769        0.36580
C          8.53117        4.76777        0.55335
N          6.02853        4.85315        0.11345
O          8.40126        6.11255        0.57025
O          9.59974        4.22366        0.69762
C          4.08914        0.95911       -1.02618
C          4.44862       -0.26773       -0.45898
C          5.74999       -0.45014        0.01622
H          8.36497        2.51184       -0.62709
H          7.30884        3.42796       -1.70781
H          7.70042        0.43195        0.28687
H          4.72978        2.95016       -1.55211
H          7.03798        3.51426        1.32970
H          5.81344        5.46542        0.89401
H          6.15278        5.43804       -0.70911
H          9.28467        6.48775        0.71393
H          3.07571        1.11008       -1.40344
H          3.71960       -1.07715       -0.39133
H          6.04443       -1.40513        0.45576
