17
L-PROLINE.gamout	Energy:    -400.6661519
C          1.63580        1.47845       -0.08609
C          2.22188        1.48931        1.32560
O          3.53677        1.79682        1.31961
O          1.62279        1.22679        2.34063
C          0.12756        1.85842       -0.11411
N          1.74854        0.09572       -0.59952
C          0.39822       -0.48255       -0.61610
C         -0.55495        0.69762       -0.86673
H          2.24811        2.14983       -0.70215
H          3.86311        1.72417        2.23077
H         -0.03203        2.82988       -0.59991
H         -0.25336        1.92873        0.91292
H          2.16837        0.08977       -1.52236
H          0.18642       -0.94571        0.36085
H          0.33647       -1.27153       -1.37744
H         -0.61299        0.91302       -1.94530
H         -1.57699        0.51110       -0.50892
