17
L-PROLINE.gamout	Energy:    -400.6661490
C          1.63545        1.47804       -0.08661
C          2.22221        1.48948        1.32456
O          3.53739        1.79910        1.32034
O          1.62309        1.22471        2.33885
C          0.12817        1.85677       -0.11400
N          1.74699        0.09570       -0.59733
C          0.39722       -0.48123       -0.61529
C         -0.55412        0.69851       -0.86805
H          2.24814        2.14895       -0.70239
H          3.86298        1.72370        2.23155
H         -0.03269        2.82945       -0.59624
H         -0.25125        1.92152        0.91355
H          2.17099        0.08548       -1.51822
H          0.18319       -0.94330        0.36163
H          0.33576       -1.27001       -1.37614
H         -0.61299        0.91390       -1.94650
H         -1.57525        0.51261       -0.50914
