20
L_ASCORBIC_ACID.gamout	Energy:    -683.9926501
C          5.98128        5.28631        4.52428
C          7.10213        4.40709        4.18466
O          4.87209        4.88420        3.81825
O          5.98017        6.21479        5.29432
C          6.66880        3.48532        3.29754
O          8.31540        4.56351        4.74927
C          5.22011        3.78229        2.97736
O          7.34186        2.48099        2.72888
C          4.28613        2.59427        3.23055
O          2.13504        1.66357        3.06135
C          2.82799        2.89807        2.91556
O          4.77446        1.54893        2.39035
H          8.27434        5.32749        5.34546
H          5.11310        4.09931        1.92525
H          6.70068        1.85237        2.34886
H          4.36986        2.29391        4.28974
H          1.20142        1.76851        2.85232
H          2.74308        3.27930        1.88244
H          2.45333        3.66523        3.61114
H          4.11303        0.84427        2.36021
