11
LAC-1.gamout	Energy:    -342.6770428
C         -1.00569        1.66504        0.32013
C         -0.01868        2.58518       -0.48051
C          0.15624        3.95535        0.17389
H          0.84757        4.57949       -0.41572
H          0.57313        3.83926        1.18662
H         -0.81711        4.46125        0.24928
O          1.23386        1.92511       -0.61344
H         -0.46112        2.72988       -1.48532
H          1.05001        1.08809       -0.12361
O         -0.49097        0.57837        0.70971
O         -2.16995        2.08509        0.47888
