10
LACTONITRILE.gamout	Energy:    -246.9715937
C         33.97918       29.86575        0.00310
C         32.60741       29.29951        0.05213
C         31.82137       29.64527       -1.21674
O         32.64001       27.91122        0.32480
N         35.05488       30.29041       -0.05170
H         32.10758       29.74775        0.92444
H         30.80831       29.23133       -1.13118
H         31.75654       30.73448       -1.34858
H         32.31020       29.22054       -2.10554
H         33.08244       27.44185       -0.39441
