47
LAUROYLSARCOSINATE-1.gamout	Energy:    -867.8625720
H          8.35440        9.04771       -0.15705
O          0.01303       -3.19201        0.28624
C          1.26087       -3.15397        0.21012
O          2.09388       -4.08800        0.18382
C          1.83531       -1.68686        0.13819
N          3.26217       -1.60169       -0.17551
C          3.65687       -2.14997       -1.46476
O          3.81943       -0.67967        1.83824
C          4.14958       -1.20135        0.76774
C          5.64848       -1.41248        0.51274
C          6.41610       -0.08471        0.37214
C          6.14395        0.66216       -0.93904
C          6.80582        2.04706       -1.04473
C          8.33505        2.04286       -1.18645
C          9.00719        3.42663       -1.16975
C          8.63381        4.37184       -2.33008
C          7.50323        5.37272       -2.04289
C          7.79380        6.40765       -0.94284
C          9.06386        7.24019       -1.14987
C          9.21694        8.36478       -0.12366
H          1.26240       -1.13130       -0.62186
H          1.67245       -1.20069        1.10472
H          4.45376       -1.55127       -1.92469
H          3.96048       -3.20360       -1.38607
H          2.78476       -2.11335       -2.12808
H          6.00698       -1.93339        1.41207
H          5.85316       -2.07489       -0.33798
H          6.12841        0.55623        1.22023
H          7.49550       -0.28127        0.47263
H          6.45770        0.03689       -1.79364
H          5.05698        0.80148       -1.04242
H          6.36817        2.57205       -1.90883
H          6.52546        2.63857       -0.15590
H          8.77787        1.45020       -0.37030
H          8.61189        1.52557       -2.12313
H          8.79138        3.91499       -0.20577
H         10.09709        3.27137       -1.18039
H          9.52669        4.93592       -2.64267
H          8.35195        3.77313       -3.21040
H          7.27739        5.91702       -2.97685
H          6.58659        4.82518       -1.77749
H          6.93410        7.09632       -0.88188
H          7.84481        5.91447        0.04194
H          9.95165        6.58989       -1.10660
H          9.05139        7.66928       -2.16666
H          9.28614        7.97226        0.90336
H         10.12387        8.95686       -0.31300
