33
LEVOSIMENDAN.gamout	Energy:    -943.1928404
O         -6.78230       -0.82072       -0.36256
N         -3.27925       -1.25729       -0.05466
N         -4.62942       -1.44622       -0.02942
N          2.86955        0.51978       -0.00818
N          3.69527       -0.48439       -0.03964
N          6.60624       -2.31474       -0.09083
N          5.84091        2.16183        0.04423
C         -3.73722        1.14731        0.11102
C         -5.05159        0.86076       -0.63243
C         -2.81234       -0.05417       -0.01597
C         -3.96811        1.48513        1.59844
C         -1.33803        0.10031       -0.02151
C         -5.60479       -0.51437       -0.32468
C         -0.72010        1.36391        0.00561
C         -0.49935       -1.03708       -0.04472
C          0.66778        1.49145        0.00973
C          0.88311       -0.92634       -0.04150
C          1.47432        0.34789       -0.01393
C          4.99204       -0.28718       -0.03265
C          5.86708       -1.42063       -0.06548
C          5.54279        1.03906        0.00781
H         -3.27058        2.01625       -0.37078
H         -4.89376        0.89847       -1.72343
H         -5.82661        1.60065       -0.39508
H         -4.60584        2.37599        1.69021
H         -4.46519        0.65649        2.12254
H         -3.01850        1.68618        2.11230
H         -4.91950       -2.41503        0.03519
H         -1.31641        2.27400        0.02527
H         -0.96111       -2.02259       -0.06536
H          1.12265        2.48389        0.03135
H          1.51328       -1.81372       -0.06015
H          3.23183        1.47669        0.02299
