16
LEVULINIC_ACID.gamout	Energy:    -420.5359156
O         -0.20836        3.20678        0.25932
O         -0.49694       -1.50133        1.36555
O         -1.23067       -1.75786       -0.73943
C          0.66022        0.97785        0.13763
C         -0.78823        0.47888        0.08345
C          0.77094        2.49747        0.16505
C          2.17059        3.07061        0.07867
C         -0.87747       -1.02672        0.15406
H          1.24360        0.59823       -0.71790
H          1.17080        0.59255        1.03649
H         -1.27276        0.79964       -0.84556
H         -1.34885        0.91198        0.92413
H          2.81960        2.62829        0.85031
H          2.13681        4.15938        0.19434
H          2.61888        2.81787       -0.89558
H         -0.57648       -2.46822        1.34363
