26
LIMONENE.gamout	Energy:    -390.1416556
C          2.01029        2.96661        2.96054
C          3.37043        3.64965        3.13423
C          4.08678        3.80435        1.77955
C          2.05745        1.75391        2.05360
C          3.11761        1.51596        1.26377
C          0.85241        0.85321        2.09209
C          4.32893        2.40854        1.16799
C          5.35375        4.64821        1.86064
C          5.35393        5.90615        1.03151
C          6.40005        4.30340        2.62458
H          1.60984        2.66900        3.94435
H          1.27398        3.68526        2.55405
H          3.24693        4.63228        3.61332
H          4.00288        3.04962        3.80757
H          3.38389        4.32602        1.10750
H          3.11928        0.61770        0.63827
H          0.71861        0.41586        3.09602
H         -0.06873        1.42074        1.87515
H          0.92657        0.03194        1.36682
H          5.19097        1.93213        1.66660
H          4.62680        2.51490        0.11175
H          6.29469        6.46474        1.12258
H          5.19094        5.67052       -0.03342
H          4.52558        6.56970        1.33184
H          7.29675        4.92341        2.67272
H          6.40333        3.39379        3.22860
