29
LINALOOL.gamout	Energy:    -466.4699424
C         -1.99080        1.18222       -0.22633
C         -0.74737        2.05380       -0.25952
C         -0.80755        3.22629        0.72508
H          0.07670        3.86280        0.61029
H         -0.84976        2.87204        1.76484
H         -1.69606        3.84731        0.54102
C          0.48654        1.15506       -0.02335
C          1.84841        1.84587       -0.16070
H          0.43598        0.32763       -0.74791
H          0.39486        0.70553        0.97786
C          3.00748        0.89307        0.01324
H          1.93152        2.66073        0.57773
H          1.89982        2.33467       -1.14715
C          4.30386        1.24674       -0.01656
C          4.72097        2.68607       -0.23423
H          5.81309        2.79536       -0.25565
H          4.33486        3.34154        0.56389
H          4.32387        3.07899       -1.18403
C          5.40855        0.23733        0.15981
H          6.07191        0.22094       -0.72187
H          5.01572       -0.77677        0.31258
H          6.04566        0.49432        1.02346
H          2.76354       -0.16254        0.17126
C         -3.04585        1.29347        0.58578
H         -1.98395        0.39071       -0.98370
H         -3.11046        2.05355        1.36645
H         -3.88959        0.60668        0.50238
O         -0.60511        2.55648       -1.60534
H         -1.40855        3.02999       -1.85083
