18
LINDANE.gamout	Energy:   -2992.0021207
Cl        -1.54369        2.69276       -2.06169
Cl        -2.79190        0.27832       -0.22399
Cl         1.23612        1.79453       -3.55006
Cl        -3.15212       -2.50272       -1.92804
Cl         0.87595       -0.98652       -5.25408
Cl        -0.37232       -3.40096       -3.41642
C         -0.93809        0.98917       -2.10299
C         -2.11326        0.02525       -1.88161
C         -0.22548        0.73390       -3.43861
C         -1.69051       -1.44210       -2.03948
C          0.19728       -0.73346       -3.59646
C         -0.97788       -1.69737       -3.37511
H         -0.22295        0.89857       -1.27561
H         -2.92656        0.25905       -2.58030
H         -0.87460        1.02819       -4.27323
H         -1.04138       -1.73641       -1.20488
H          1.01059       -0.96724       -2.89776
H         -1.69301       -1.60676       -4.20249
