31
LUTEOLIN.gamout	Energy:   -1027.7222768
C         -0.57921        1.15588        0.07170
C         -0.13045        2.49087        0.11559
C         -1.93030        0.79904        0.03698
O          0.29200        0.10724        0.06067
C         -1.13761        3.49847        0.12296
C          1.32906        2.75815        0.15094
C         -2.49121        3.16117        0.08868
O         -0.75065        4.78982        0.16431
C         -2.88293        1.81669        0.04599
O         -4.21818        1.56681        0.01448
C          2.15780        1.55139        0.13458
O          1.83092        3.87701        0.19127
C          1.64041        0.29835        0.09128
C          2.38857       -0.97211        0.07222
C          3.78859       -3.42987        0.03570
C          2.37852       -3.41703        0.00917
C          4.47569       -2.21283        0.07984
O          4.40312       -4.63974        0.01642
C          1.70036       -2.20103        0.02747
O          1.74904       -4.62322       -0.03371
C          3.79287       -0.99885        0.09809
H         -2.20837       -0.25449        0.00411
H         -3.25951        3.93590        0.09470
H         -1.52159        5.36929        0.16487
H         -4.39221        0.61883       -0.01326
H          3.23300        1.70855        0.15949
H          5.56806       -2.21907        0.10042
H          5.36130       -4.53518        0.03733
H          0.61083       -2.20543        0.00667
H          0.79274       -4.50485       -0.04878
H          4.36675       -0.07498        0.13291
