15
M-2HEA+1.gamout	Energy:    -249.7439762
C         -6.98765        0.59974       -0.77087
N         -8.21436       -0.23309       -0.52560
H         -7.13033        1.15908       -1.70115
H         -6.12595       -0.07001       -0.85953
H         -6.85230        1.28691        0.07088
C         -8.51071       -1.23792       -1.60829
H         -9.02506        0.38679       -0.40705
C         -9.77127       -2.04007       -1.29503
H         -7.64098       -1.90120       -1.68978
H         -8.62380       -0.68699       -2.54995
O         -9.88645       -2.94814       -2.35504
H         -9.66201       -2.55234       -0.31854
H        -10.64508       -1.36320       -1.22818
H        -10.66972       -3.50471       -2.26705
H         -8.11363       -0.72597        0.36998
