15
M-CHLOROBENZOIC_ACID.gamout	Energy:    -879.7132351
Cl         7.38594        3.24421       -0.86207
C          6.30437        1.88432       -0.62386
O          5.80764       -2.69793        0.82727
C          6.59731       -1.77736        0.22405
O          7.74725       -2.03641       -0.01861
C          5.96723       -0.45136       -0.10778
C          6.83288        0.63482       -0.30928
C          4.58136       -0.26841       -0.23945
C          4.92451        2.07571       -0.75209
C          4.06780        0.98953       -0.56368
H          4.94576       -2.33194        1.06495
H          7.90762        0.48199       -0.21837
H          3.88930       -1.10567       -0.12692
H          4.53131        3.06114       -1.00170
H          2.99145        1.12667       -0.67616
