14
M-CHLORONITROBENZENE.gamout	Energy:    -895.6323523
C          6.31066        1.88674       -0.67805
C          6.86226        0.64987       -0.34763
C          4.92459        2.07115       -0.72909
Cl         7.37449        3.23222       -1.03534
C          4.07703        0.99644       -0.44411
C          4.60032       -0.25382       -0.11029
C          5.98722       -0.40120       -0.06882
N          6.55766       -1.71790        0.28293
O          5.77566       -2.62681        0.52232
O          7.77550       -1.82024        0.31312
H          7.93791        0.49256       -0.30412
H          4.51686        3.04795       -0.98981
H          2.99626        1.13860       -0.48348
H          3.96172       -1.10567        0.11568
