24
M-CYMENE.gamout	Energy:    -388.9819753
C          0.93880        2.87394        0.61119
C          1.68351        1.85313        1.48993
C          1.27163        1.97771        2.96731
C          3.19400        1.94294        1.31223
C          3.89772        3.10840        1.66253
C          3.91974        0.86326        0.79379
C          5.28575        3.21515        1.51007
C          5.30686        0.94980        0.63126
C          6.02123        4.47303        1.90742
C          5.98558        2.11464        0.98570
H          1.18463        3.90606        0.90235
H          1.20286        2.75178       -0.44862
H         -0.15003        2.74946        0.71132
H          1.38290        0.84869        1.15096
H          0.18506        1.84500        3.08030
H          1.77602        1.22088        3.58426
H          1.52915        2.96772        3.37304
H          3.35293        3.96407        2.06729
H          3.39650       -0.05294        0.51279
H          5.85944        0.10071        0.22381
H          6.67701        4.29166        2.77397
H          6.66083        4.83667        1.08879
H          5.32547        5.27850        2.17753
H          7.06820        2.17592        0.85555
