12
M-DICHLOROBENZENE.gamout	Energy:   -1150.7657280
Cl        -2.71608        0.83302       -0.00016
C         -1.19900       -0.04962       -0.00006
C          0.00001        0.66596        0.00002
C          1.19901       -0.04962       -0.00010
C          1.21571       -1.44625       -0.00051
C         -0.00000       -2.13477       -0.00054
C         -1.21571       -1.44624        0.00131
Cl         2.71608        0.83303        0.00009
H          0.00000        1.75464        0.00011
H          2.16379       -1.98296       -0.00075
H         -0.00001       -3.22579       -0.00090
H         -2.16380       -1.98294        0.00081
