24
M-DIETHYLBENZENE.gamout	Energy:    -388.9817596
C         -1.00129        0.51148       -2.20504
C         -1.82580        0.11988       -3.26172
C         -2.98038       -0.62776       -3.01521
C         -3.32393       -0.99662       -1.70607
C         -2.48433       -0.58954       -0.65754
C         -1.31824        0.15576       -0.88426
H         -0.10588        1.10395       -2.40549
H         -1.57370        0.40919       -4.28412
H         -3.62397       -0.92411       -3.84635
C         -4.55485       -1.83508       -1.43291
H         -2.74638       -0.86233        0.36850
C         -0.41089        0.54948        0.26240
H         -5.31518       -1.62264       -2.20033
H         -4.99614       -1.53699       -0.46860
C         -4.26475       -3.34492       -1.41080
H         -3.82581       -3.67362       -2.36434
H         -5.18722       -3.92014       -1.24194
H         -3.55227       -3.59722       -0.61186
H         -0.99052        0.56517        1.19800
H         -0.04871        1.57790        0.10437
C          0.79797       -0.38804        0.42784
H          1.43216       -0.36971       -0.47022
H          0.47035       -1.42576        0.58651
H          1.41319       -0.08510        1.28804
