13
M-FLUOROPHENOL.gamout	Energy:    -406.2223492
C          6.33436        1.85468       -0.66924
C          6.86163        0.59966       -0.33420
C          4.95112        2.02717       -0.71740
C          4.07517        0.97151       -0.43763
C          4.63276       -0.25866       -0.10905
C          6.00702       -0.47377       -0.04955
F          3.81510       -1.29810        0.16686
O          8.21809        0.47538       -0.29890
H          7.01866        2.67456       -0.88652
H          4.54334        3.00511       -0.97846
H          2.99275        1.09057       -0.47076
H          6.38870       -1.46185        0.21434
H          8.47814       -0.42142       -0.05953
