16
M-HIDROXYBENZOIC_ACID.gamout	Energy:    -495.4560257
C          6.48266        1.86604       -0.51682
C          6.97790        0.58273       -0.24299
C          5.10524        2.07298       -0.62761
O          7.29658        2.94677       -0.68425
C          4.22442        0.99624       -0.46441
C          4.71536       -0.29175       -0.19025
C          2.76408        1.27193       -0.59230
C          6.09231       -0.48631       -0.08173
O          2.28182        2.35721       -0.82670
O          1.99561        0.17106       -0.41848
H          8.05552        0.42124       -0.15625
H          4.71700        3.06834       -0.84011
H          8.22353        2.69935       -0.58876
H          4.02520       -1.12333       -0.06491
H          6.48590       -1.48142        0.13086
H          1.07234        0.44839       -0.51906
