19
M-METHYLSTYRENE.gamout	Energy:    -348.4999973
C          5.80981        4.29864        0.35046
C          4.98967        3.26862        0.60882
C          3.61658        3.32384        1.14367
C          2.91723        2.12076        1.35220
C          2.96478        4.53226        1.46220
C          1.61059        2.09015        1.86028
C          1.66866        4.51959        1.96992
C          0.88467        0.77849        2.04798
C          0.99275        3.31004        2.16989
H          5.52354        5.33810        0.52061
H          6.81057        4.12650       -0.04580
H          5.36119        2.25836        0.40802
H          3.41410        1.17740        1.11080
H          3.47460        5.48457        1.31615
H          1.17573        5.46206        2.21604
H          0.14463        0.84188        2.85768
H          0.34510        0.49031        1.13074
H          1.58303       -0.03631        2.28568
H         -0.02268        3.31589        2.57179
