17
M-NITROTOLUENE.gamout	Energy:    -475.4850463
C          6.34039        1.89525       -0.59430
C          6.90015        0.63122       -0.33294
C          4.95692        2.08522       -0.62977
C          4.09091        1.01371       -0.40492
C          4.65065       -0.23702       -0.14709
N          3.75430       -1.38440        0.09160
C          6.03174       -0.44275       -0.10825
C          8.39785        0.44519       -0.29155
O          2.54794       -1.18363        0.05244
O          4.26604       -2.47333        0.31549
H          7.00277        2.74477       -0.77375
H          4.54834        3.07558       -0.83518
H          3.00942        1.12866       -0.42669
H          6.41063       -1.44240        0.09671
H          8.86739        0.80266       -1.22033
H          8.84315        1.01461        0.53909
H          8.66732       -0.61003       -0.15862
