16
M-PHENYLENEDIAMINE.gamout	Energy:    -342.5327706
N          7.18969        2.90497       -1.03002
C          6.34924        1.84868       -0.68268
C          6.88468        0.58948       -0.34777
C          4.95487        2.01473       -0.71433
C          6.02073       -0.46510       -0.05178
C          4.63492       -0.30575       -0.07994
C          4.08990        0.94885       -0.41651
N          2.71051        1.14777       -0.40439
H          6.80836        3.83832       -0.95351
H          8.14833        2.84344       -0.71464
H          7.96646        0.44491       -0.32525
H          4.53616        2.99059       -0.97496
H          6.43906       -1.43981        0.20825
H          3.97475       -1.14163        0.15915
H          2.35504        1.92823       -0.94003
H          2.13258        0.32159       -0.48002
