17
M-TOLUIDINE.gamout	Energy:    -326.4987868
C          6.32337        1.88182       -0.66227
C          6.84350        0.61721       -0.36031
C          4.92990        2.05597       -0.67719
C          7.25066        3.02807       -0.99320
C          6.00541       -0.47718       -0.07755
C          4.61148       -0.28295       -0.09790
N          6.54684       -1.71325        0.26899
C          4.08940        0.97566       -0.39429
H          7.92733        0.47383       -0.33589
H          4.50555        3.03583       -0.90342
H          8.21038        2.93587       -0.46515
H          7.47187        3.05622       -2.07313
H          6.80248        3.99513       -0.72588
H          3.94472       -1.11829        0.12702
H          5.94629       -2.52089        0.17373
H          7.50124       -1.89234       -0.01232
H          3.00641        1.11562       -0.40327
