18
M-TOLUIC_ACID.gamout	Energy:    -459.5750667
O          7.05979        4.03649       -1.68308
C          7.58851        2.87162       -1.23769
O          8.78563        2.70904       -1.14859
C          6.56014        1.85417       -0.88421
C          6.99997        0.60703       -0.40978
C          5.18705        2.11046       -1.01282
C          6.09094       -0.39557       -0.05915
C          4.27085        1.11573       -0.66533
C          6.55921       -1.73767        0.45048
C          4.71773       -0.12055       -0.19483
H          7.80123        4.62722       -1.88490
H          8.07374        0.43840       -0.32086
H          4.84637        3.07679       -1.38020
H          3.20046        1.30540       -0.76207
H          7.65447       -1.79003        0.49551
H          6.16895       -1.93697        1.46067
H          6.20787       -2.55324       -0.20048
H          3.98916       -0.88920        0.07304
