16
M-TOLUNITRILE.gamout	Energy:    -363.3349793
N          7.89670        3.84513       -1.22876
C          7.18744        2.96001       -0.98325
C          6.30959        1.86237       -0.67974
C          6.85109        0.60719       -0.34203
C          4.91639        2.04228       -0.71899
C          6.01879       -0.47616       -0.04225
C          4.08312        0.96411       -0.41922
C          6.58996       -1.82839        0.31046
C          4.62732       -0.27759       -0.08538
H          7.93489        0.48727       -0.31549
H          4.50189        3.01585       -0.98003
H          3.00004        1.09408       -0.44519
H          7.68170       -1.79070        0.41662
H          6.16790       -2.20038        1.25592
H          6.35321       -2.57131       -0.46735
H          3.96147       -1.11106        0.14820
