18
M-XYLENE.gamout	Energy:    -310.4651380
C          0.85160        3.77786        2.63019
C          1.77162        2.74361        2.02527
C          3.15272        2.77152        2.26667
C          1.26122        1.73010        1.19872
C          4.02706        1.82563        1.71017
C          2.11442        0.77867        0.63600
C          5.51272        1.88878        1.97664
C          3.48768        0.82393        0.88870
H          1.36318        4.37366        3.39795
H         -0.02688        3.30556        3.09511
H          0.47631        4.47450        1.86306
H          3.56241        3.55334        2.91174
H          0.18839        1.68538        0.99805
H          1.70534       -0.00597       -0.00384
H          5.73923        2.51032        2.85371
H          6.05270        2.31941        1.11738
H          5.93033        0.88650        2.15252
H          4.14804        0.07406        0.44754
