18
M-XYLENE.gamout	Energy:    -310.4651183
C          1.04498        2.87261        3.58817
C          1.86242        2.22996        2.49301
C          3.23698        2.48295        2.39929
C          1.27904        1.37275        1.55034
C          4.03405        1.90955        1.40109
C          2.05484        0.79012        0.54689
C          5.51190        2.21185        1.34024
C          3.42298        1.05667        0.47252
H          1.09158        3.97112        3.52732
H          1.41964        2.58540        4.58309
H         -0.00973        2.57559        3.52614
H          3.70231        3.15012        3.12982
H          0.21040        1.16104        1.60352
H          1.58994        0.12316       -0.18320
H          6.01936        1.90500        2.26816
H          5.69340        3.29039        1.21185
H          5.99196        1.68748        0.50440
H          4.02344        0.59812       -0.31366
