9
MALEIC_ANHYDRIDE.gamout	Energy:    -378.8499050
C          0.89852        2.84140        0.05662
O         -0.06395        3.54696        0.06403
O          2.19531        3.33859        0.02640
C          0.99322        1.35140        0.07562
C          3.09098        2.27678        0.02466
C          2.28947        1.01782        0.05687
O          4.27435        2.42986        0.00197
H          0.11119        0.71450        0.10047
H          2.75556        0.03446        0.06217
