12
MALEIC_ACID.gamout	Energy:    -455.2081106
C          1.11400        2.11800        0.95615
C          1.72365        0.92908        1.07047
C          1.72986        3.47330        0.86062
C          3.18463        0.63581        1.13970
O          2.78182        3.65427        1.67909
O          1.28543        4.34338        0.14919
O          3.93223        1.38079        0.30560
O          3.64333       -0.23198        1.84487
H          0.02455        2.14386        0.88655
H          1.10880        0.03128        1.16142
H          3.11811        4.55401        1.53815
H          4.86090        1.12685        0.43012
