11
MALEATE_MONOANION-1.gamout	Energy:    -454.6571303
O          2.95970        0.00561        0.00000
O         -2.90817       -0.03595       -0.00000
O          1.54617        1.74383        0.00000
O         -1.44219        1.69589        0.00000
C          0.70180       -0.56399       -0.00000
C         -0.65059       -0.57880        0.00000
C          1.67638        0.54513        0.00000
C         -1.76326        0.49420        0.00000
H          1.20371       -1.53529       -0.00000
H         -1.08537       -1.58457       -0.00000
H          3.55182        0.77173        0.00000
