7
MALONONITRILE.gamout	Energy:    -224.6937681
C          3.37421        0.67888        0.95867
C          2.13901        1.47246        0.89209
C          0.92289        0.65009        0.82334
N          4.35923        0.07627        1.01189
N         -0.04761        0.02453        0.76821
H          2.18049        2.12935        0.00720
H          2.08197        2.12574        1.77878
