11
MALONIC_ACID.gamout	Energy:    -417.1792653
C          2.76255        1.69168        1.43276
C          1.88018        0.56653        0.92274
C          4.25261        1.39679        1.44137
O          2.16848       -0.60411        1.52548
O          0.99679        0.69244        0.11378
O          4.65258        0.80215        0.30025
O          5.00784        1.69379        2.33125
H          2.58014        2.56950        0.79851
H          2.47062        1.93821        2.46226
H          1.56572       -1.28127        1.17907
H          5.61154        0.66138        0.35000
