23
MDEGSO4-1.gamout	Energy:   -1045.7427124
O          4.55820       -3.73387       -2.26416
S          4.58951       -4.73184       -3.67415
O          6.04755       -4.86621       -3.88535
O          3.85774       -3.93369       -4.69467
C          3.26521       -3.40059       -1.80659
C          3.35714       -2.70301       -0.46371
H          2.65932       -4.31687       -1.68190
H          2.75033       -2.74533       -2.53079
O          3.79867       -1.36466       -0.61593
H          4.05413       -3.26109        0.19071
H          2.35719       -2.70683        0.01661
C          4.02615       -0.69616        0.59256
C          4.48493        0.72153        0.31877
H          4.81068       -1.21568        1.18153
H          3.10881       -0.66530        1.21722
O          3.38871        1.53314       -0.05391
H          4.96401        1.13478        1.22972
H          5.24194        0.70099       -0.48688
C          3.76010        2.81931       -0.47277
H          4.44613        2.78082       -1.34093
H          4.25798        3.38781        0.33897
H          2.84615        3.35303       -0.76846
O          3.88351       -5.97638       -3.25507
