8
MESO3-1.gamout	Energy:    -663.3223646
C          1.73132       -0.00002        0.00090
S         -0.09722        0.00001        0.00029
O         -0.46793       -0.01786       -1.45257
O         -0.47134       -1.24842        0.74149
O         -0.47139        1.26615        0.71106
H          2.07297        0.89868       -0.52879
H          2.07698        0.00815        1.04265
H          2.07270       -0.90669       -0.51513
