18
METHYL_N-BUTYL_SULFIDE.gamout	Energy:    -595.5061662
C          3.72045        1.58078        3.15272
S          2.12838        1.01612        3.86847
C          0.99213        2.29618        3.23613
C          3.85282        1.38330        1.64087
C          5.18603        1.88637        1.06163
C          6.42042        1.11251        1.53618
H          4.47909        0.99786        3.69359
H          3.87243        2.63784        3.42459
H          0.00222        2.07361        3.65550
H          0.91945        2.27565        2.14017
H          1.30109        3.29699        3.57074
H          3.02922        1.91002        1.13501
H          3.72610        0.31348        1.40955
H          5.30717        2.95648        1.30135
H          5.12730        1.82673       -0.03681
H          7.32999        1.47907        1.03861
H          6.32334        0.03934        1.30890
H          6.57835        1.21132        2.62025
