18
METHYLCYCLOPENTANE.gamout	Energy:    -235.5427384
C          0.68498        1.49354        1.55243
C          2.13878        1.12296        1.83674
C          3.18045        1.94569        1.06045
C          2.58968        1.31983        3.29356
C          4.51779        1.68987        1.79009
C          4.13220        1.27231        3.24083
H          0.43519        1.34572        0.49113
H          0.49133        2.55051        1.79687
H         -0.01008        0.88104        2.14588
H          2.28525        0.05770        1.57850
H          2.91037        3.01328        1.12388
H          3.21768        1.68571       -0.00645
H          2.16078        0.57330        3.97589
H          2.24884        2.31008        3.63975
H          5.16510        2.57780        1.77473
H          5.08070        0.88547        1.29417
H          4.49135        0.25532        3.45826
H          4.58693        1.93002        3.99440
