7
METHYLACETYLENE.gamout	Energy:    -116.4965858
C          0.38676        0.84385        0.59052
C          1.84617        0.84453        0.60934
C          3.05755        0.84510        0.62498
H         -0.00292        1.77319        0.14741
H         -0.00048       -0.00012       -0.00068
H         -0.02174        0.75840        1.60909
H          4.12961        0.84565        0.63853
