14
METHYLETHANOLAMINE.gamout	Energy:    -249.3786279
C         -1.49062        0.11558        0.24626
C         -0.02629        0.50752        0.10270
C         -3.77253        0.98263        0.16604
N         -2.35056        1.28466        0.16160
H         -4.03339        0.42402       -0.74578
H         -4.35033        1.91704        0.16157
H         -4.09898        0.37466        1.03598
H         -1.61964       -0.45775        1.18834
H         -1.75059       -0.57005       -0.57570
H         -2.12851        1.94768        0.90001
O          0.75752       -0.67370        0.20375
H          0.24649        1.22642        0.89901
H          0.12054        1.00981       -0.86882
H          1.68839       -0.46288        0.08064
