13
METHYLAL.gamout	Energy:    -269.2130697
C          2.60088        1.47320        3.51217
O          1.72956        2.57203        3.37911
C          2.23569        3.59116        2.58003
O          1.26779        4.59002        2.54976
C          1.63760        5.70590        1.77278
H          3.55943        1.76826        3.97886
H          2.81654        1.00490        2.53350
H          2.10054        0.74057        4.15614
H          3.19003        3.98508        3.00365
H          2.44309        3.21586        1.54981
H          1.81173        5.42526        0.71719
H          2.55331        6.18584        2.16562
H          0.80933        6.42254        1.82014
