15
METHYL_METHACRYLATE.gamout	Energy:    -345.3587416
C         -0.71711        0.85653       -0.03066
C          0.45085        1.50961       -0.13655
C          1.67504        0.82109       -0.65833
C          0.64525        2.95423        0.23728
O          1.47945       -0.47313       -0.97395
O          2.74715        1.37379       -0.78736
C          2.60935       -1.18239       -1.48939
H         -0.80956       -0.19095       -0.31299
H         -1.60955        1.36276        0.34118
H         -0.29576        3.39904        0.58350
H          1.02263        3.53165       -0.61978
H          1.40174        3.05390        1.03037
H          2.26353       -2.20522       -1.66938
H          3.43349       -1.17558       -0.76341
H          2.95691       -0.72273       -2.42442
