8
METHYLTRICHLOROSILANE.gamout	Energy:   -1709.4218778
Cl        -0.77927        1.77641        0.66951
Cl        -1.14919       -1.56326        0.66822
Cl         1.92836       -0.21476        0.66936
Si         0.00023        0.00001       -0.07675
C         -0.00048        0.00218       -1.93392
H         -1.02741        0.11669       -2.31081
H          0.61135        0.83554       -2.30922
H          0.41512       -0.94315       -2.31251
