19
METHYL_ISOBUTYL_KETONE.gamout	Energy:    -310.6885857
C          2.40652        2.94695        2.48192
C          2.10035        1.47518        2.17118
C          3.87753        3.34008        2.41693
C          2.35622        1.14777        0.69379
C          0.66549        1.12066        2.58115
C          4.17325        4.82709        2.37649
O          4.76856        2.51564        2.41570
H          1.82784        3.61733        1.82264
H          2.07312        3.19699        3.50631
H          2.79357        0.86751        2.77377
H          2.17212        0.08288        0.49063
H          1.68760        1.73217        0.04034
H          3.39392        1.36726        0.41081
H         -0.06810        1.72189        2.02024
H          0.45104        0.06140        2.37901
H          0.49522        1.29777        3.65395
H          5.25272        5.00133        2.44507
H          3.65098        5.34858        3.19353
H          3.78898        5.25234        1.43572
