15
METHYL_ISOPROPYL_ETHER.gamout	Energy:    -233.3509509
O          1.80156        2.17020        2.71489
C          1.67490        3.48346        2.21844
C          2.09472        1.13025        1.77863
C          3.47286        1.29908        1.13310
C          0.97810        0.93487        0.74945
H          1.46464        4.12643        3.08264
H          0.84204        3.58340        1.50072
H          2.60105        3.84244        1.73655
H          2.12720        0.23471        2.41783
H          3.74518        0.38589        0.58434
H          4.23549        1.48087        1.90321
H          3.49309        2.13376        0.41634
H          0.00399        0.85836        1.25242
H          1.14904        0.00875        0.18173
H          0.93309        1.76192        0.02490
