12
METHYL_ACRYLATE.gamout	Energy:    -306.0945866
C          3.92819        0.85398        1.21385
C          2.44371        0.89643        1.25509
O          1.91887        1.94132        0.58620
O          1.76733        0.07304        1.83362
C          4.69916        1.74931        0.58669
C          0.49108        2.04501        0.58531
H          4.35455        0.00665        1.75407
H          5.78639        1.65847        0.59643
H          4.26499        2.59304        0.04934
H          0.25694        2.93769       -0.00322
H          0.04236        1.15248        0.12925
H          0.11468        2.14850        1.61175
