15
METHYLCYCLOBUTANE.gamout	Energy:    -196.2550860
C          0.97725        0.97170        1.75226
C          1.99659        1.92437        1.14806
C          3.44208        1.95749        1.72087
C          1.89388        3.44468        1.45762
C          3.44189        3.49793        1.53732
H         -0.02762        1.14593        1.33672
H          0.91731        1.10309        2.84404
H          1.24432       -0.07800        1.55360
H          2.04117        1.77730        0.05617
H          4.21427        1.37335        1.20058
H          3.45186        1.67899        2.78598
H          1.43235        3.61619        2.44232
H          1.39072        4.08610        0.72029
H          3.88816        3.79283        0.57653
H          3.89308        4.10805        2.33157
