12
METHYL_ETHYL_SULFIDE.gamout	Energy:    -516.9897076
S          1.90023        2.50306        2.23575
C          3.62896        2.17903        1.71199
C          3.87202        0.80537        1.09282
C          1.06843        2.61784        0.61615
H          3.94110        2.98365        1.02805
H          4.21570        2.29632        2.63488
H          3.29338        0.66940        0.16803
H          4.93711        0.68577        0.83801
H          3.59041        0.00449        1.79063
H          1.09454        1.66367        0.07251
H          1.51490        3.41104       -0.00127
H          0.02070        2.87617        0.81796
