10
METHYL_VINYL_ETHER.gamout	Energy:    -192.8680845
O          1.95410        1.21078        1.17692
C          2.34200        2.41491        0.68588
C          3.60337        2.68450        0.33832
C          0.55836        0.98148        1.26314
H          1.54875        3.16885        0.61268
H          4.38791        1.93060        0.41134
H          3.86128        3.68102       -0.01569
H          0.06298        1.76803        1.85775
H          0.10051        0.94104        0.26044
H          0.42334        0.01533        1.76230
