18
METHYL_BENZOATE.gamout	Energy:    -459.5565755
C          0.95179        3.23383       -0.20159
O          0.57095        1.90204        0.15919
C          0.04323        1.14392       -0.82187
O         -0.11082        1.54838       -1.95406
C         -0.32224       -0.22818       -0.36069
C         -0.12267       -0.64914        0.96446
C         -0.88074       -1.11524       -1.29515
C         -0.47852       -1.94384        1.34629
C         -1.03380       -2.82407        0.41186
C         -1.23465       -2.40808       -0.90919
H          1.71896        3.21221       -0.98674
H          0.08160        3.79342       -0.56937
H          1.34634        3.68989        0.71171
H          0.31083        0.03953        1.68772
H         -1.02835       -0.77216       -2.31916
H         -0.32160       -2.26696        2.37678
H         -1.31084       -3.83596        0.71354
H         -1.66798       -3.09399       -1.63904
