12
METHYLCYCLOPROPANE.gamout	Energy:    -156.9936275
C          1.95812        1.47852        1.71013
C          3.11209        2.12970        0.99046
C          3.07038        0.62747        1.15114
C          0.57778        1.45239        1.09006
H          1.95944        1.59420        2.79807
H          2.92299        2.54293       -0.00279
H          3.84255        2.69224        1.57430
H          3.77213        0.16177        1.84499
H          2.85302        0.02623        0.26573
H          0.63816        1.33528       -0.00263
H         -0.02096        0.61591        1.48346
H          0.03186        2.38612        1.29707
