19
METHYL_TERT-BUTYL_KETONE.gamout	Energy:    -310.6854925
C         -0.64276        0.05568        0.00000
C         -1.37374       -1.29501        0.00000
C         -1.02342        0.85456       -1.26665
C         -1.02342        0.85456        1.26665
C          0.88172       -0.18511        0.00000
O          1.34776       -1.30634       -0.00000
C          1.82356        1.01232        0.00000
H         -1.10922       -1.88881       -0.88429
H         -1.10923       -1.88881        0.88430
H         -2.46120       -1.13408       -0.00000
H         -2.10947        1.02845       -1.28179
H         -0.53210        1.83616       -1.30942
H         -0.75975        0.29998       -2.17871
H         -0.75975        0.29997        2.17871
H         -0.53210        1.83616        1.30942
H         -2.10947        1.02846        1.28179
H          1.32303        1.98648        0.00000
H          2.47375        0.93831        0.88316
H          2.47375        0.93831       -0.88316
