15
METHYL_PROPYL_ETHER.gamout	Energy:    -233.3491375
C          1.20917        2.11871        2.12879
C          0.63068        2.85070        3.34244
C          2.10122        0.94270        2.53286
O          2.58778        0.18457        1.44146
C          3.67410        0.75363        0.74915
H          1.78080        2.82965        1.51188
H          0.39620        1.73048        1.49524
H         -0.01356        3.68530        3.03231
H          1.42850        3.26416        3.97893
H          0.02480        2.17449        3.96525
H          1.52277        0.24004        3.15213
H          2.94835        1.30302        3.15098
H          4.00041        0.02295       -0.00209
H          4.51849        0.96342        1.43242
H          3.40098        1.69005        0.23022
