19
METHYL-ISO-BUTYL_KETONE.gamout	Energy:    -310.6885381
C          2.45057        2.91237        2.38499
C          2.08234        1.46320        2.04203
C          3.91742        3.28093        2.19866
C          2.16673        1.20383        0.53207
C          0.69342        1.11078        2.59116
C          4.24961        4.75901        2.25096
O          4.77964        2.44235        2.03393
H          1.82943        3.62335        1.81200
H          2.22274        3.12816        3.44515
H          2.82470        0.81744        2.53687
H          1.92730        0.15600        0.30069
H          1.44771        1.83690       -0.01344
H          3.17292        1.40986        0.14442
H         -0.08595        1.74533        2.13959
H          0.44010        0.06454        2.36864
H          0.64515        1.24435        3.68219
H          5.33485        4.90285        2.29214
H          3.76752        5.24053        3.11495
H          3.85133        5.25180        1.34949
