11
METHYL_ACETATE.gamout	Energy:    -268.0644916
O          2.36372        2.46812        0.98262
C          1.97744        1.17767        0.95501
C          0.47680        1.05128        1.01176
O          2.75754        0.25686        0.88941
C          3.77450        2.71157        0.92693
H          0.08411        1.59243        1.88364
H          0.03164        1.50534        0.11465
H          0.20275       -0.00688        1.06674
H          4.19667        2.30073        0.00028
H          4.27603        2.24308        1.78403
H          3.89164        3.79942        0.95689
