18
METHYL_ISOBUTYL_ETHER.gamout	Energy:    -272.6112998
C          0.30027       -0.53763       -0.19712
C         -1.03415       -0.00224        0.32054
C         -1.30131        1.42391       -0.17532
C         -2.17311       -0.95937       -0.05198
O          1.35938        0.25930        0.28989
C          2.63199       -0.17046       -0.12843
H          0.43817       -1.58856        0.12649
H          0.30509       -0.53811       -1.30721
H         -0.95041        0.02624        1.42040
H         -0.48948        2.10135        0.11889
H         -1.38370        1.44567       -1.27427
H         -2.24347        1.81069        0.23922
H         -1.99467       -1.97356        0.33565
H         -3.12921       -0.60489        0.35844
H         -2.28804       -1.03113       -1.14546
H          2.84487       -1.19756        0.22322
H          2.72232       -0.15234       -1.23084
H          3.37272        0.51524        0.30202
