16
METHYL_N-PROPYL_KETONE.gamout	Energy:    -271.4277478
C          3.30747        2.78483        2.32594
C          1.90072        2.36228        2.79548
C          0.96572        3.55473        3.00699
C          4.22396        1.58629        2.12373
C          4.14285        0.86454        0.79305
O          4.98019        1.21963        3.00063
H          3.77073        3.42894        3.08692
H          3.22303        3.35607        1.38680
H          1.99827        1.79671        3.73519
H          1.45518        1.67222        2.06087
H          0.82896        4.12481        2.07518
H          1.36929        4.24287        3.76497
H         -0.02563        3.22318        3.34744
H          4.78912       -0.02007        0.80038
H          4.45610        1.54607       -0.01432
H          3.10473        0.57188        0.57154
