17
METHYL_NICOTINATE.gamout	Energy:    -475.5785642
O          2.06824        0.78437       -0.00039
O          1.87339       -1.45633       -0.00061
N         -1.99521        1.37977        0.00011
C         -0.11339       -0.12251       -0.00023
C         -0.97672       -1.22660       -0.00038
C         -0.67923        1.16380       -0.00001
C          1.36053       -0.35877       -0.00043
C         -2.35074       -1.00186       -0.00021
C         -2.80949        0.32063        0.00001
C          3.49552        0.65521       -0.00058
H         -0.55428       -2.23210       -0.00057
H         -0.03254        2.04302        0.00008
H         -3.05863       -1.83167       -0.00030
H         -3.88257        0.53386        0.00012
H          3.82823        0.11210       -0.89469
H          3.82844        0.11183        0.89329
H          3.88628        1.67727       -0.00047
