21
METHYLCYCLOHEXANE.gamout	Energy:    -274.8106797
C          5.24679        2.15696        1.05234
C          3.90535        2.23769        1.78447
C          3.16301        0.88841        1.76919
C          3.00256        3.34338        1.20833
C          1.81057        0.95970        2.49001
C          1.64912        3.42440        1.92626
C          0.92302        2.07207        1.91603
H          5.78520        3.11571        1.09271
H          5.89716        1.38621        1.49214
H          5.09711        1.90230       -0.00896
H          4.10623        2.49312        2.84204
H          3.00032        0.58830        0.71819
H          3.79584        0.10805        2.22065
H          3.52007        4.31450        1.25993
H          2.83375        3.13752        0.13591
H          1.29651       -0.01209        2.42930
H          1.98510        1.15376        3.56279
H          1.81421        3.73687        2.97221
H          1.02023        4.20119        1.46451
H          0.65051        1.81609        0.87689
H         -0.02117        2.14001        2.47822
