7
METHYL_ISOCYANATE.gamout	Energy:    -207.7414493
N          1.65101       -0.33820        0.00100
C          0.51556        0.04696        0.00060
O         -0.55786        0.53185        0.00044
C          2.51227       -1.48292       -0.00015
H          3.55878       -1.15202        0.00144
H          2.34197       -2.10336        0.89267
H          2.34371       -2.10020       -0.89549
