21
METHYL_P-TOLUATE.gamout	Energy:    -498.8195179
O         -2.47387       -0.83268        0.02851
O         -2.34285        1.40974       -0.07751
C          2.49971       -0.13468        0.00047
C         -0.31463        0.13400       -0.01484
C          1.89631        1.13157       -0.06043
C          1.66415       -1.26494        0.05388
C          0.50871        1.26754       -0.06804
C          0.27736       -1.13926        0.04652
C          3.99991       -0.29149        0.00863
C         -1.79192        0.33057       -0.02583
C         -3.90125       -0.73487        0.02170
H          2.52355        2.02421       -0.10251
H          2.11164       -2.26029        0.10157
H          0.04285        2.25183       -0.11531
H         -0.35577       -2.02417        0.08814
H          4.33902       -0.89284       -0.84929
H          4.50672        0.68103       -0.03814
H          4.33882       -0.80746        0.92052
H         -4.27107       -1.76400        0.07070
H         -4.24761       -0.24359       -0.89730
H         -4.24970       -0.15706        0.88793
