18
METHYL_FUMARATE.gamout	Energy:    -533.7094225
C          2.55642        1.47075       -0.00010
C          1.39357        0.54205       -0.00010
O          0.23581        1.22685       -0.00010
O          1.45959       -0.66682       -0.00010
C          3.81371        1.00828       -0.00010
C         -0.96802        0.45009       -0.00009
C          4.97653        1.93702       -0.00010
O          6.13433        1.25227       -0.00010
O          4.91045        3.14588       -0.00010
C          7.33811        2.02909       -0.00010
H          2.35711        2.54368       -0.00010
H          4.01305       -0.06464       -0.00010
H         -1.78869        1.17389        0.00006
H         -1.01126       -0.18546       -0.89446
H         -1.01113       -0.18564        0.89414
H          8.15882        1.30533        0.00004
H          7.38131        2.66465       -0.89445
H          7.38121        2.66480        0.89416
