14
METHYLCYCLOPENTADIENE.gamout	Energy:    -233.1060047
C          1.16104        0.33657        0.00190
C          0.71565       -0.94439        0.00070
C         -0.75339       -0.96300       -0.00050
C         -1.21756        0.30730        0.00000
C         -0.04382        1.25199        0.00160
C          2.57396        0.83015        0.00339
H          1.34678       -1.83431        0.00068
H         -1.36001       -1.86917       -0.00161
H         -2.25997        0.62396       -0.00070
H         -0.04788        1.91976       -0.87951
H         -0.04929        1.91850        0.88366
H          3.28882       -0.00361        0.00340
H          2.78310        1.45485        0.88841
H          2.78452        1.45604       -0.88044
