18
METHYL_TERT-BUTYL_SULFIDE.gamout	Energy:    -595.5089410
S          1.83668        2.58397        1.99804
C          1.08583        1.13059        2.79816
C          3.64582        2.12334        1.86246
C          4.25201        1.89743        3.25318
C          3.82068        0.88203        0.97839
C          4.29279        3.34619        1.19451
H          0.01554        1.35573        2.89008
H          1.19513        0.22259        2.18985
H          1.49000        0.95727        3.80455
H          3.79471        1.04004        3.76540
H          5.32977        1.68634        3.16180
H          4.12611        2.78534        3.88668
H          3.38632        1.04336       -0.01705
H          4.89239        0.65512        0.85744
H          3.34815       -0.00506        1.42151
H          5.37171        3.17118        1.06580
H          3.85745        3.53539        0.20326
H          4.16433        4.24943        1.80730
