6
METHANOL.gamout	Energy:    -115.5831598
H          0.22983        0.83380        1.60859
C          0.66562        0.97744        0.60437
H         -0.04290        1.55846       -0.00029
H          0.80088       -0.00961        0.12845
O          1.87385        1.71776        0.64853
H          2.52845        1.24197        1.17090
