15
METHYL_N-PROPYL_SULFIDE.gamout	Energy:    -556.2484399
C         51.98291       10.02988        0.00009
C         50.66677        9.25144       -0.00002
S         50.98227        7.44385        0.00020
C         51.77002       11.54645       -0.00009
C         49.26474        6.83569        0.00010
H         52.57368        9.73866        0.88277
H         52.57388        9.73851       -0.88240
H         50.07123        9.50738       -0.89072
H         50.07100        9.50754        0.89049
H         52.73273       12.07788       -0.00005
H         51.20795       11.87140       -0.88906
H         51.20774       11.87161        0.88867
H         49.31089        5.73890        0.00024
H         48.72543        7.16819        0.89882
H         48.72561        7.16796       -0.89881
