21
METHYL_AMYL_ETHER.gamout	Energy:    -311.8689923
C         34.95680       -0.01294       -0.00007
C         36.32287        0.67931        0.00013
C         37.48943       -0.29671        0.00001
C         33.78327        0.97286        0.00010
O         38.70254        0.42765        0.00018
C         32.41240        0.29347       -0.00013
C         39.85029       -0.38516        0.00008
H         34.87513       -0.67209       -0.88199
H         34.87508       -0.67244        0.88157
H         36.41458        1.33137        0.88346
H         36.41470        1.33177       -0.88288
H         37.44138       -0.95428       -0.89154
H         37.44131       -0.95458        0.89133
H         33.86774        1.63056        0.88131
H         33.86783        1.63093       -0.88082
H         31.59953        1.03400       -0.00002
H         32.28440       -0.34424       -0.88848
H         32.28430       -0.34467        0.88789
H         40.72563        0.27672        0.00022
H         39.88823       -1.03170        0.89742
H         39.88831       -1.03138       -0.89748
