17
METHYL_ISOBUTYRATE.gamout	Energy:    -346.5812693
C          0.26080        0.30339       -0.03519
C         -1.12722       -0.22556       -0.37674
C         -1.44507       -1.50460        0.42047
C         -2.18941        0.86045       -0.19365
O          0.51038        1.40670        0.39199
O          1.21606       -0.61766       -0.27408
C          2.56580       -0.23223        0.00950
H         -1.07497       -0.50376       -1.44390
H         -2.42639       -1.89848        0.11974
H         -0.69186       -2.28286        0.24768
H         -1.48495       -1.29124        1.49951
H         -1.96030        1.75012       -0.79391
H         -3.17410        0.47730       -0.49633
H         -2.24824        1.17514        0.85770
H          2.85154        0.63831       -0.59559
H          2.67596        0.02213        1.07187
H          3.18438       -1.09859       -0.24514
