21
METHYL_TERT-PENTYL_ETHER.gamout	Energy:    -311.8705883
C         10.83813       20.75386        0.76514
C         12.36043       20.94631        0.60338
O         12.72391       21.81793        1.69105
C         13.06070       19.58707        0.76130
C         12.70831       21.57327       -0.75686
C          9.99057       22.01873        0.61978
C         14.04128       22.31029        1.75352
H         10.50744       19.99538        0.03800
H         10.67495       20.32166        1.76419
H         14.15169       19.67637        0.66988
H         12.72226       18.89102       -0.01970
H         12.82794       19.14874        1.74156
H         12.25604       20.98520       -1.56769
H         12.33201       22.60193       -0.82524
H         13.79276       21.59072       -0.93116
H          8.93714       21.80082        0.84611
H         10.33402       22.79843        1.31258
H         10.02838       22.42470       -0.40134
H         14.27275       22.99683        0.92091
H         14.12323       22.86977        2.69403
H         14.79698       21.50598        1.76291
