21
METHYL_PENTYL_SULFIDE.gamout	Energy:    -634.7660671
S         -2.69578       -0.73916        0.00999
C          1.33812        0.36538       -0.00146
C          0.06824       -0.49383        0.00422
C          2.62826       -0.46142       -0.00056
C         -1.21089        0.34066        0.00307
C          3.89903        0.39015       -0.00643
C         -3.99540        0.53835        0.00733
H          1.33372        1.03233        0.87826
H          1.33047        1.02533       -0.88642
H          0.07395       -1.15065        0.88937
H          0.07090       -1.15759       -0.87577
H          2.63168       -1.12201        0.88275
H          2.62832       -1.12900       -0.87862
H         -1.25014        0.98451       -0.88965
H         -1.24712        0.99171        0.89070
H          3.94109        1.03550       -0.89754
H          3.94453        1.04273        0.87924
H          4.80164       -0.23786       -0.00562
H         -3.93037        1.17234        0.90344
H         -4.96226        0.01853        0.01104
H         -3.93353        1.16533       -0.89392
