20
METHYL_VALERATE.gamout	Energy:    -385.8406152
C          1.12278        0.13082       -0.00038
C         -0.17334       -0.65130       -0.00055
C         -1.42699        0.22112        0.00035
C         -2.72000       -0.60066        0.00002
C         -3.98380        0.26208        0.00079
O          1.22420        1.33545       -0.00180
O          2.18982       -0.69406        0.00117
C          3.48032       -0.07217        0.00054
H         -0.15292       -1.32129       -0.87619
H         -0.15256       -1.32274        0.87394
H         -1.40533        0.88448        0.87914
H         -1.40566        0.88572       -0.87749
H         -2.72976       -1.26462       -0.88129
H         -2.72949       -1.26581        0.88044
H         -4.02049        0.91054        0.88959
H         -4.02077        0.91172       -0.88715
H         -4.89146       -0.35842        0.00052
H          3.60300        0.55374       -0.89331
H          3.60296        0.55571        0.89302
H          4.20701       -0.89041        0.00147
