23
METHYL_HEXANOATE.gamout	Energy:    -425.0973198
C          1.38084        0.00687        0.22338
C          2.90826        0.08549        0.26411
C          3.45814        0.62391        1.58884
C          4.98636        0.70646        1.62095
C          5.52822        1.24820        2.95364
C          7.03722        1.36449        2.94601
O          7.60385        0.61150        3.91309
O          7.66594        2.04292        2.16715
C          9.03229        0.60862        4.03641
H          1.02557       -0.38386       -0.74100
H          0.92842        0.99990        0.36960
H          0.99554       -0.65377        1.01541
H          3.26720        0.72431       -0.56010
H          3.33397       -0.91510        0.07822
H          3.10503       -0.01504        2.41697
H          3.03676        1.62708        1.77731
H          5.34406        1.35126        0.80386
H          5.41354       -0.29371        1.43789
H          5.20907        0.61762        3.79371
H          5.13493        2.26335        3.12380
H          9.48425        1.25750        3.27791
H          9.37970       -0.42498        3.91213
H          9.28465        0.96411        5.04362
