17
METHYL_N-BUTYRATE.gamout	Energy:    -346.5818983
C          0.57205        0.13750       -0.00022
C         -0.76621       -0.57067       -0.00058
C         -1.96483        0.37836        0.00083
C         -3.30466       -0.36001        0.00021
O          0.73458        1.33544       -0.00106
O          1.59379       -0.74206        0.00080
C          2.91495       -0.18812        0.00013
H         -0.78787       -1.23954       -0.87712
H         -0.78739       -1.24180        0.87421
H         -1.89568        1.03835        0.87843
H         -1.89599        1.04039       -0.87524
H         -3.40939       -1.00080       -0.88912
H         -3.40913       -1.00285        0.88808
H         -4.14381        0.35003        0.00115
H          3.06967        0.43101       -0.89359
H          3.06983        0.43287        0.89253
H          3.59869       -1.04245        0.00096
