23
METHYL_P-COUMARATE.gamout	Energy:    -612.0020844
C         -0.74323        1.22499        0.06336
C         -1.23007       -0.07588        0.01394
C          0.63852        1.46402       -0.02491
C         -0.36140       -1.17898       -0.12465
C          1.02143       -0.90991       -0.21095
C         -0.82403       -2.56372       -0.18195
C          1.52242        0.38679       -0.16278
O          1.16801        2.71616        0.01806
C         -2.09265       -3.01968       -0.11646
C         -2.37317       -4.46571       -0.19350
C         -4.10333       -6.07967       -0.17586
O         -3.70299       -4.70879       -0.10960
O         -1.55193       -5.35137       -0.31667
H         -1.43571        2.06367        0.17096
H         -2.30607       -0.23664        0.08407
H          1.71642       -1.74515       -0.31868
H         -0.04410       -3.32351       -0.29188
H          2.59246        0.58444       -0.23018
H          0.47588        3.38098        0.11418
H         -2.95537       -2.36224       -0.00675
H         -3.65408       -6.65149        0.64732
H         -5.19493       -6.07816       -0.09258
H         -3.78975       -6.52490       -1.12971
