27
METHYLCYCLOOCTANE.gamout	Energy:    -353.3112718
C          3.91596        4.29422        2.45390
C          4.68677        3.96215        1.16934
C          4.85465        2.47343        0.80406
C          2.42871        3.92467        2.50879
C          2.04383        2.42997        2.43992
C          2.93057        1.51448        3.32312
C          0.55908        2.27486        2.80232
C          4.04874        0.74536        2.59733
C          5.21605        1.53007        1.97261
H          4.43369        3.84544        3.31574
H          3.99017        5.38216        2.61167
H          4.22029        4.48693        0.31836
H          5.69338        4.40078        1.27408
H          3.94833        2.10163        0.30271
H          5.64671        2.41601        0.04165
H          2.02521        4.32618        3.45476
H          1.89178        4.45903        1.70628
H          2.14892        2.09346        1.39698
H          3.35396        2.09214        4.16173
H          2.28577        0.75543        3.79290
H          0.21777        1.24000        2.65253
H          0.38415        2.53574        3.85823
H         -0.07497        2.93110        2.18740
H          4.47579        0.02296        3.31181
H          3.58226        0.13616        1.80258
H          5.75151        2.09045        2.75731
H          5.93676        0.78198        1.60760
