28
METHYL_N-HEPTYL_KETONE.gamout	Energy:    -428.4636596
C          0.91060       -0.26175       -0.00000
C         -0.40595        0.52096       -0.00000
C          2.14336        0.63735       -0.00000
C         -1.64632       -0.37780       -0.00000
C         -2.96922        0.39341        0.00000
C         -4.20628       -0.51103       -0.00000
C          4.73543        0.75547        0.00000
C         -5.52939        0.25775        0.00000
O          3.54636       -1.30742        0.00000
C          3.47423       -0.09531        0.00000
H          0.95286       -0.92643        0.87674
H          0.95286       -0.92643       -0.87675
H         -0.43990        1.18498        0.88165
H         -0.43990        1.18499       -0.88165
H          2.14242        1.31545       -0.87364
H          2.14242        1.31546        0.87363
H         -1.61145       -1.04168       -0.88099
H         -1.61145       -1.04168        0.88099
H         -3.00485        1.05709        0.88174
H         -3.00485        1.05710       -0.88173
H          4.52955        1.83367       -0.00000
H          5.33590        0.49720        0.88429
H          5.33591        0.49720       -0.88428
H         -4.16598       -1.17441       -0.88044
H         -4.16598       -1.17442        0.88043
H         -5.61392        0.90240        0.88849
H         -5.61392        0.90241       -0.88848
H         -6.38980       -0.42715        0.00000
