8
METHYLDICHLOROSILANE.gamout	Energy:   -1249.9551877
Cl         0.74731        0.01649        0.57685
Cl         3.48437        1.68995        1.67239
Si         2.82104        0.19159        0.37354
C          3.64431       -1.42575        0.79349
H          3.41522       -1.72828        1.82527
H          3.29261       -2.21386        0.11029
H          4.73579       -1.32968        0.68909
H          3.08199        0.66593       -1.00320
