30
METHYL_TRIMELLITATE.gamout	Energy:    -914.7718373
O          2.40197       -1.56164       -0.79036
O          2.65041        1.77731       -0.97594
O         -4.21166        0.87097        0.11589
O          0.93451       -2.96878        0.17043
O          2.94374        0.74654        1.00449
O         -3.86094       -1.34784       -0.00721
C          0.33148       -0.66543       -0.07944
C          0.78784        0.66953       -0.04857
C         -1.97083        0.12418        0.01643
C         -1.04307       -0.92195       -0.03682
C         -0.14536        1.71405       -0.00586
C         -1.51333        1.44977        0.02630
C          1.23632       -1.85571       -0.19438
C          2.24513        1.03005        0.06130
C         -3.42651       -0.21911        0.03990
C          3.35308       -2.62961       -0.89346
C          4.01071        2.23167       -0.94408
C         -5.62525        0.63767        0.13678
H         -1.39558       -1.95231       -0.05593
H          0.20758        2.74531        0.01435
H         -2.22939        2.26866        0.06352
H          2.93514       -3.45385       -1.48509
H          3.61363       -2.99939        0.10629
H          4.22986       -2.20174       -1.38850
H          4.69707        1.37547       -0.93371
H          4.18724        2.84588       -0.05152
H          4.14643        2.82454       -1.85382
H         -5.93634        0.10150       -0.76893
H         -6.09086        1.62708        0.18057
H         -5.90011        0.04204        1.01708
