16
MMIM+1.gamout	Energy:    -304.8333475
C          2.47946        0.56412        0.02955
N          1.08793        0.10660        0.00136
C         -0.00216        0.88244        0.01507
N         -1.08815        0.10114       -0.00420
C         -0.68019       -1.21672       -0.03118
C          0.68601       -1.21331       -0.02710
C         -2.48133        0.55287       -0.00906
H          2.94744        0.26406        0.97558
H          3.02486        0.11688       -0.81025
H          2.50420        1.65499       -0.06055
H         -0.00536        1.96817        0.03846
H         -1.38693       -2.03940       -0.05210
H          1.39760       -2.03209       -0.04186
H         -2.95964        0.26232       -0.95316
H         -3.01461        0.09320        0.83165
H         -2.50913        1.64162        0.09527
