21
MMPYR+1.gamout	Energy:    -291.1870214
N          0.41858       -0.55476       -0.08977
C         -0.42933        0.10595       -1.18907
C          1.48940        0.48195        0.29056
C          1.43409        1.54651       -0.79820
H          2.45075       -0.02991        0.39773
H          1.20553        0.89822        1.26322
C         -0.05649        1.58270       -1.15757
H         -1.48380       -0.11808       -1.00118
H         -0.13999       -0.35354       -2.14069
H         -0.63186        2.12160       -0.39048
H         -0.25917        2.06522       -2.12052
H          2.03990        1.25624       -1.66904
H          1.81647        2.50757       -0.43575
C         -0.42541       -0.88704        1.09994
H         -0.96328        0.01162        1.41552
H          0.22363       -1.23544        1.90935
H         -1.13692       -1.67433        0.82964
C          1.05534       -1.80408       -0.60928
H          1.74032       -1.54338       -1.42176
H          0.27301       -2.47172       -0.98377
H          1.60402       -2.29191        0.20255
