8
MONOFLUOROACETIC_ACID.gamout	Energy:    -327.9444848
C         34.97375       29.99434        0.00004
C         33.60034       29.34432       -0.00053
O         33.73685       28.00094        0.00006
O         32.54522       29.91562       -0.00026
F         34.86718       31.36101        0.00031
H         35.52967       29.66846        0.89383
H         35.53053       29.66896       -0.89339
H         32.85065       27.60431        0.00019
