5
MONOFLUOROTRICHLOROMETHANE.gamout	Energy:   -1517.7998395
Cl         1.73934        2.17068        2.66499
C          1.23554        1.14335        1.29459
Cl         0.01113       -0.04545        1.81949
Cl         0.60386        2.14594       -0.04079
F          2.30638        0.47672        0.85095
