8
MONOBROMOACETIC_ACID.gamout	Energy:   -2801.9446590
O          1.94799        1.74249        0.01029
C          1.32750        0.56310       -0.05919
O          0.12903        0.46654       -0.05328
C          2.16687       -0.71121       -0.15039
Br         4.12408       -0.46113       -0.15091
H          2.91453        1.62852       -0.00675
H          1.92842       -1.35200        0.70481
H          1.91200       -1.23349       -1.07836
