15
MORPHOLINE.gamout	Energy:    -287.4333054
C         -5.17945        1.94966        1.66431
C         -5.44473        2.45342        0.24844
N         -3.96929        1.13614        1.65354
O         -5.53577        1.37409       -0.66975
C         -4.36241        0.57523       -0.67306
C         -4.07059        0.02166        0.71867
H         -5.03558        2.80722        2.33787
H         -6.07202        1.38649        2.01030
H         -4.63051        3.13779       -0.05691
H         -6.39941        2.99261        0.19379
H         -3.71520        0.82622        2.58542
H         -4.53773       -0.23675       -1.39115
H         -3.49970        1.17644       -1.01706
H         -4.87585       -0.69348        0.99069
H         -3.11899       -0.52908        0.70173
