15
MPY+1.gamout	Energy:    -287.5931702
N          0.04569        1.18548        0.64433
C          0.53811        2.27298        1.27562
C          0.10819        3.54572        0.93463
C         -0.84483        3.69517       -0.07248
C         -0.87467        1.31131       -0.33845
C         -1.33881        2.55819       -0.71702
H          1.27737        2.09294        2.05245
H          0.52519        4.40418        1.45861
H         -1.19903        4.68732       -0.35549
H         -2.07977        2.62941       -1.51104
H         -1.21845        0.38890       -0.80138
C          0.49933       -0.16879        1.02355
H          1.30290       -0.08502        1.75898
H          0.86816       -0.68714        0.13109
H         -0.34170       -0.72463        1.45581
