30
N,N-DIBUTYLFORMAMIDE.gamout	Energy:    -483.7593324
C         -1.40685       -0.89794       -0.61396
C         -1.97589        0.34128        0.08779
C         -3.43912        0.60116       -0.28439
C         -4.03306        1.82699        0.41135
N         -0.01466       -1.19304       -0.30188
C          0.32810       -2.28599        0.42992
O          1.47023       -2.61357        0.70856
C          1.05058       -0.34720       -0.84298
C          1.67432        0.61897        0.17139
C          2.82541        1.42934       -0.43265
C          3.46187        2.40425        0.55871
H         -2.00458       -1.77897       -0.33683
H         -1.50687       -0.78017       -1.70674
H         -1.88077        0.20593        1.17737
H         -1.36950        1.22357       -0.17131
H         -3.51769        0.72323       -1.37778
H         -4.03928       -0.28982       -0.03435
H         -4.00490        1.71418        1.50590
H         -3.47324        2.73985        0.15623
H         -5.08114        1.98442        0.11919
H         -0.55432       -2.87879        0.75975
H          1.83648       -1.01022       -1.23346
H          0.63179        0.21007       -1.69409
H          0.90170        1.30312        0.55700
H          2.03954        0.03159        1.02664
H          3.59398        0.73401       -0.80862
H          2.46111        1.98627       -1.31353
H          4.29036        2.96181        0.09835
H          2.72702        3.13877        0.92322
H          3.86221        1.87263        1.43546
