26
N,N-DIETHYLANILINE.gamout	Energy:    -444.2525621
C          5.61049        4.94184       -1.32180
C          6.20530        3.85270       -2.22582
N          6.92452        2.79018       -1.53697
C          8.36972        2.92074       -1.41027
C          6.24555        1.73094       -0.94644
C          8.85957        3.53373       -0.09058
C          6.93361        0.69791       -0.25960
C          4.83306        1.62043       -1.01758
C          6.24757       -0.37822        0.30259
C          4.85653       -0.47782        0.21622
C          4.16358        0.53751       -0.44801
H          5.04754        5.66982       -1.92576
H          4.92568        4.51381       -0.57758
H          6.39962        5.48460       -0.78410
H          6.90720        4.31365       -2.93492
H          5.41027        3.40867       -2.84442
H          8.83686        1.93542       -1.55749
H          8.71679        3.54028       -2.24937
H          9.95978        3.55348       -0.06581
H          8.49825        4.56474        0.02468
H          8.50760        2.95324        0.77274
H          8.01538        0.73068       -0.15454
H          4.24319        2.38679       -1.51456
H          6.81924       -1.15186        0.82003
H          4.32603       -1.32017        0.66178
H          3.07515        0.49321       -0.52807
