15
N,N-DIMETHYLACETAMIDE.gamout	Energy:    -287.4647072
C         -1.92581       -0.29753       -0.02021
C         -0.57249        0.39835       -0.00869
N          0.58257       -0.34514        0.01350
O         -0.54444        1.62488       -0.01048
C          1.86275        0.34786        0.00320
C          0.68770       -1.79208        0.02739
H         -1.92327       -1.38203       -0.16168
H         -2.51863        0.16493       -0.81997
H         -2.42993       -0.06435        0.92849
H          1.68593        1.42629       -0.00752
H          2.44483        0.06036       -0.88764
H          2.44860        0.07887        0.89691
H         -0.28870       -2.27165        0.10599
H          1.29779       -2.11876        0.88590
H          1.18088       -2.15677       -0.89029
