23
N,N-DIMETHYL-P-TOLUIDINE.gamout	Energy:    -404.9946495
C          6.62301        4.17700       -1.39193
N          7.16792        2.94661       -0.85580
C          8.60051        2.73919       -0.91489
C          6.32428        1.86745       -0.61772
C          6.83125        0.59536       -0.25944
C          4.91812        1.98954       -0.72287
C          5.97351       -0.47300        0.00088
C          4.08086        0.90591       -0.45804
C          4.57896       -0.34943       -0.08171
C          3.66029       -1.50620        0.23334
H          7.41606        4.93068       -1.44344
H          6.19989        4.05276       -2.40753
H          5.82762        4.57400       -0.74276
H          9.10010        3.70635       -1.03386
H          8.97410        2.28319        0.01483
H          8.90491        2.08699       -1.75622
H          7.90420        0.42823       -0.19146
H          4.46711        2.93252       -1.02445
H          6.41014       -1.43767        0.27230
H          3.00105        1.04625       -0.55345
H          4.11761       -2.46935       -0.03664
H          3.41890       -1.55169        1.30899
H          2.70734       -1.42103       -0.30856
