24
N-(2-AMINOETHYL)PIPERAZINE.gamout	Energy:    -401.3802792
N          0.06772        0.11971       -0.10489
N         -2.74714       -0.22636        0.16976
N          3.82046       -0.12686        0.02129
C         -0.49416       -1.11625        0.43721
C         -0.81424        1.25431        0.15852
C         -1.89397       -1.37143       -0.11681
C         -2.21100        1.00150       -0.40301
C          1.43877        0.36693        0.31919
C          2.47169       -0.50680       -0.39734
H         -0.54728       -1.07128        1.54819
H          0.15655       -1.95932        0.17086
H         -0.38490        2.14928       -0.31383
H         -0.89968        1.45612        1.24947
H         -1.80565       -1.57493       -1.20512
H         -2.31488       -2.26732        0.36162
H         -2.86750        1.84320       -0.13992
H         -2.13831        0.95771       -1.51042
H          1.68994        1.41466        0.10321
H          1.54790        0.24025        1.42156
H         -3.70657       -0.38930       -0.11733
H          2.24747       -1.57651       -0.22563
H          2.37685       -0.33193       -1.47875
H          3.98625       -0.34100        1.00179
H          4.53462       -0.60392       -0.52025
