60
N-BENZYL-N,N-DIMETHYLDODECANAMINIUM+1.gamout	Energy:    -876.4683785
N          0.89748        3.85319       -2.00326
C          0.10022        2.54607       -2.08526
C          0.25776        1.60661       -0.88952
C          0.68084        4.61101       -3.33836
C         -0.54551        0.29781       -1.00494
C          0.40970        4.67124       -0.85206
C          2.35147        3.56517       -1.82547
C         -0.26333       -0.58933        0.21755
C         -0.98091       -1.94426        0.23327
C         -0.64058       -2.76727        1.48285
C          1.29680        5.98362       -3.46395
C         -1.33698       -4.12904        1.56466
C         -0.95798       -4.91379        2.82352
C         -1.66472       -6.26786        2.93726
C          2.60770        6.15950       -3.94259
C          0.51830        7.12530       -3.21387
C         -1.29161       -7.06322        4.19110
C         -2.00100       -8.41859        4.28231
C          3.14257        7.43899       -4.11546
C          1.04529        8.40510       -3.39331
C          2.36207        8.56144       -3.83128
C         -1.63303       -9.22629        5.52753
H          0.42419        2.05600       -3.01146
H         -0.94526        2.84905       -2.21606
H          1.31537        1.33210       -0.76960
H         -0.05101        2.10876        0.03852
H          1.07087        3.93250       -4.10527
H         -0.40700        4.66785       -3.45253
H         -0.27035       -0.23571       -1.92927
H         -1.62661        0.50502       -1.06893
H         -0.66950        4.81847       -0.95463
H          0.91946        5.63859       -0.86558
H          0.62497        4.14596        0.08163
H          2.67519        2.89171       -2.62430
H          2.51083        3.09522       -0.85417
H          2.90817        4.50549       -1.87850
H         -0.53732       -0.02865        1.12778
H          0.82448       -0.76251        0.28541
H         -0.70787       -2.51206       -0.67193
H         -2.07123       -1.78509        0.18185
H          0.45097       -2.92553        1.52971
H         -0.89997       -2.18113        2.38161
H         -1.08513       -4.72647        0.67168
H         -2.43091       -3.98683        1.53939
H          0.13491       -5.06997        2.84004
H         -1.18981       -4.30390        3.71427
H         -2.75680       -6.10943        2.92081
H         -1.43320       -6.87271        2.04345
H          3.21195        5.29089       -4.20432
H         -0.51910        7.01297       -2.89809
H         -1.52901       -6.46541        5.08852
H         -0.19911       -7.22095        4.21158
H         -3.09189       -8.25597        4.25840
H         -1.76375       -9.00818        3.38057
H          4.16325        7.56424       -4.48292
H          0.42941        9.28568       -3.20430
H          2.77508        9.55861       -3.96299
H         -2.14906      -10.19761        5.54014
H         -0.55078       -9.42437        5.56886
H         -1.90900       -8.69213        6.44989
