13
N-BUTYRALDEHYDE.gamout	Energy:    -232.1581055
C          1.48690        2.87207        2.12815
C          0.98019        1.98580        3.26808
C          1.73036        2.10851        0.81502
C          2.85317        1.10382        0.90513
O          2.80939       -0.02891        0.48841
H          2.41893        3.37804        2.43134
H          0.76020        3.67486        1.93194
H          1.70684        1.20087        3.52926
H          0.04067        1.48387        2.99069
H          0.79118        2.57773        4.17520
H          2.02896        2.82730        0.02937
H          0.82420        1.59447        0.46243
H          3.78904        1.48691        1.39126
