27
N-BUTYLCYCLOPENTANE.gamout	Energy:    -353.3172135
C          3.03132        4.21869        1.66261
C          4.14483        3.48049        0.90434
C          4.90628        2.41750        1.70354
C          1.85689        3.33472        2.09792
C          5.67487        2.95119        2.93286
C          6.00644        1.69465        0.90596
C          0.72996        4.11585        2.77753
C          6.80678        1.92328        3.21119
C          6.82906        0.97023        1.98376
H          3.45589        4.72309        2.54714
H          2.64522        5.02362        1.01443
H          3.71049        3.00883        0.00616
H          4.87514        4.22122        0.53588
H          4.19314        1.64881        2.05008
H          2.21536        2.54976        2.78263
H          1.45705        2.80926        1.21354
H          6.10739        3.93390        2.68428
H          5.02323        3.10507        3.80387
H          5.60527        1.01652        0.13882
H          6.63004        2.44352        0.38731
H         -0.09552        3.45317        3.07492
H          1.09110        4.62758        3.68319
H          0.31798        4.88402        2.10476
H          7.77287        2.43324        3.33364
H          6.62936        1.36785        4.14284
H          6.33935        0.01745        2.23835
H          7.84831        0.72548        1.65390
