17
N-BUTYL_FORMATE.gamout	Energy:    -346.5679918
C          2.39567        0.59794        0.09259
C          3.88734        0.31380        0.13548
O          4.07887       -1.11182        0.25011
C          2.08599        2.09478       -0.02556
C          5.33310       -1.57889        0.31080
C          0.58617        2.39620       -0.06815
O          5.59238       -2.74523        0.40950
H          1.95510        0.05328       -0.75737
H          1.93223        0.18766        1.00371
H          4.35627        0.81083        1.00024
H          4.38243        0.67346       -0.78132
H          2.54209        2.63114        0.82364
H          2.56412        2.49874       -0.93394
H          6.10957       -0.78105        0.26130
H          0.40212        3.47622       -0.15280
H          0.10487        1.90609       -0.92830
H          0.08116        2.04125        0.84331
