12
N-BUTYRONITRILE.gamout	Energy:    -211.0994796
C          0.24615        1.62227        1.88382
C          1.78074        1.75730        1.79084
C          2.22791        2.48927        0.60096
C         -0.36331        0.76232        0.77680
N          2.56334        3.06962       -0.34365
H          0.01634        1.18830        2.86901
H         -0.19873        2.62875        1.87111
H          2.17592        2.27603        2.67816
H          2.24935        0.75974        1.77067
H          0.04161       -0.26110        0.80217
H         -1.45448        0.69604        0.89215
H         -0.15434        1.18457       -0.21721
