26
N-BUTYL_N-BUTYRATE.gamout	Energy:    -464.3620691
C          0.51197        1.84024        0.77527
C          1.41863        0.84098        1.49909
C          2.63148        1.48720        2.17378
C          3.66874        2.02005        1.20334
O          4.54066        2.83929        1.82038
O          3.74145        1.74001        0.02883
C          5.60560        3.39316        1.02280
C          8.58405        5.68233        2.09150
C          7.65994        4.87365        1.17940
C          6.50625        4.20591        1.93642
H          0.12720        2.60094        1.47265
H          1.05524        2.35531       -0.02899
H         -0.35230        1.33212        0.32381
H          1.77151        0.07839        0.78965
H          0.83958        0.31210        2.27163
H          3.15529        0.75844        2.81473
H          2.33297        2.30920        2.84233
H          6.15117        2.57168        0.53632
H          5.16352        4.01272        0.22807
H          9.39312        6.15900        1.51997
H          8.02979        6.47745        2.61332
H          9.04705        5.04178        2.85774
H          7.24928        5.53292        0.39656
H          8.24778        4.10279        0.65354
H          6.90494        3.54396        2.72198
H          5.90090        4.97188        2.44720
