16
N-BUTYLAMINE.gamout	Energy:    -213.5125708
C          2.05462        1.68009        1.50656
C          3.46676        1.26223        1.92434
C          4.56570        1.85943        1.04628
C          0.95765        1.09422        2.39725
N          5.88731        1.40402        1.47580
H          1.98370        2.78100        1.51649
H          1.87804        1.37647        0.46050
H          3.64104        1.56950        2.97154
H          3.56117        0.16445        1.90840
H          4.41930        1.52910        0.00539
H          4.46179        2.96377        1.04261
H          1.08573        1.41043        3.44430
H         -0.03890        1.42134        2.06867
H          0.97178       -0.00649        2.37870
H          6.62532        1.74132        0.86432
H          6.10413        1.71938        2.41853
