24
N-BUTYL_METHACRYLATE.gamout	Energy:    -463.1387940
C          0.32206        1.43023       -1.00034
C          1.08384        0.77037       -0.11407
C          1.09240       -0.72837       -0.06474
C          1.97585        1.44374        0.89367
O          1.75300       -1.35833        0.73563
O          0.30622       -1.30510       -0.99167
C          0.23735       -2.74422       -1.01360
C         -0.82722       -3.27255       -0.06029
C         -0.96914       -4.79665       -0.13832
C         -2.03995       -5.34846        0.80533
H          0.31609        2.52112       -1.03028
H         -0.30967        0.90025       -1.71133
H          1.91616        2.53521        0.80002
H          1.69619        1.15575        1.91793
H          3.02213        1.13006        0.76000
H         -0.00706       -2.99430       -2.05431
H          1.22649       -3.15142       -0.76427
H         -0.56351       -2.97675        0.96653
H         -1.78940       -2.79141       -0.30082
H         -1.20883       -5.09012       -1.17456
H          0.00213       -5.26298        0.09680
H         -2.11200       -6.44301        0.73041
H         -1.81241       -5.09728        1.85247
H         -3.03052       -4.92977        0.56947
