29
N-BUTYL_VALERATE.gamout	Energy:    -503.6211474
C         -0.51031        0.41784       -0.00177
C         -1.68892       -0.53384       -0.00086
C         -3.05249        0.15341        0.00035
C         -4.21390       -0.84691        0.00126
C         -5.58988       -0.17799        0.00259
O         -0.57753        1.62526       -0.00413
O          0.65426       -0.25836        0.00015
C          1.87191        0.51015       -0.00078
C          3.03963       -0.46205        0.00105
C          4.39780        0.24775        0.00027
C          5.57931       -0.72538        0.00194
H         -1.57729       -1.19570       -0.87564
H         -1.57593       -1.19593        0.87353
H         -3.12740        0.81317        0.87887
H         -3.12892        0.81344       -0.87781
H         -4.12540       -1.50566       -0.87946
H         -4.12384       -1.50594        0.88161
H         -6.39694       -0.92470        0.00317
H         -5.72029        0.45892        0.89083
H         -5.72186        0.45920       -0.88522
H          1.88368        1.15943       -0.88883
H          1.88312        1.16233        0.88514
H          2.95788       -1.11460        0.88527
H          2.95823       -1.11719       -0.88129
H          4.46665        0.90646       -0.88161
H          4.46633        0.90897        0.88029
H          5.55692       -1.37596       -0.88572
H          6.53865       -0.18886        0.00133
H          5.55656       -1.37335        0.89150
