14
N-BUTANE.gamout	Energy:    -158.2297747
C          3.61468        1.12318        0.90575
C          2.57360        0.83219        1.98829
C          1.70918        2.04601        2.34905
C          0.66903        1.75543        3.43261
H          3.13464        1.45626       -0.02761
H          4.21403        0.23083        0.67353
H          4.30742        1.91765        1.22413
H          3.07890        0.46811        2.89906
H          1.91707        0.00979        1.65688
H          1.20302        2.40947        1.43851
H          2.36576        2.86877        2.67946
H         -0.02339        0.96016        3.11553
H          0.06923        2.64763        3.66425
H          1.14995        1.42369        4.36598
