26
N-BUTYLANILINE.gamout	Energy:    -444.2647351
C          6.52779        4.20000       -1.32929
N          7.02820        2.90904       -0.90801
C          6.22325        1.81628       -0.64390
C          7.67155        5.19259       -1.53178
C          6.81245        0.55888       -0.37639
C          4.81547        1.91084       -0.61411
C          7.19298        6.58582       -1.95030
C          6.02492       -0.55139       -0.08772
C          4.03843        0.78695       -0.31842
C          8.33899        7.57179       -2.18618
C          4.62721       -0.45088       -0.05352
H          5.93903        4.11781       -2.26456
H          5.84036        4.59275       -0.56042
H          7.99926        2.71217       -1.10455
H          8.25216        5.26323       -0.59704
H          8.35740        4.79706       -2.30144
H          7.90148        0.46653       -0.39379
H          4.32463        2.86062       -0.82304
H          6.58913        6.50153       -2.86922
H          6.51878        6.98482       -1.17438
H          6.50793       -1.50987        0.11428
H          2.95098        0.88724       -0.30037
H          7.96064        8.55976       -2.48481
H          8.94374        7.70623       -1.27599
H          9.01039        7.21465       -2.98207
H          4.01308       -1.32309        0.17364
