21
N-BUTYL_ETHYL_ETHER.gamout	Energy:    -311.8740800
C          1.83038        0.52055       -0.00007
C          3.16556       -0.20901        0.00002
O          2.93694       -1.60264        0.00003
C          1.97840        2.04564       -0.00001
C          4.11553       -2.38197        0.00002
C          0.63406        2.77757       -0.00012
C          3.74141       -3.85288       -0.00004
H          1.25553        0.19849       -0.88324
H          1.25540        0.19846        0.88300
H          3.75999        0.07766        0.89106
H          3.76013        0.07765       -0.89093
H          2.56402        2.35708        0.88138
H          2.56422        2.35715       -0.88124
H          4.72704       -2.13613       -0.89079
H          4.72693       -2.13623        0.89093
H          0.77166        3.86839       -0.00008
H          0.04041        2.51277       -0.88844
H          0.04029        2.51278        0.88813
H          4.64650       -4.47664       -0.00007
H          3.14631       -4.09882        0.89063
H          3.14639       -4.09876       -0.89079
