24
N-BUTYLBENZENE.gamout	Energy:    -388.9786995
C          2.55473        3.41346        5.47307
C          2.15932        3.03095        4.03618
C          3.31435        3.02303        3.05672
C          1.37271        3.41188        6.44684
C          4.38847        2.13199        3.22643
C          3.34530        3.89165        1.95511
C          1.76265        3.78623        7.87799
C          5.45896        2.11369        2.33064
C          4.41590        3.87700        1.05427
C          5.47796        2.98871        1.23897
H          3.32540        2.71485        5.83827
H          3.02987        4.40882        5.46346
H          1.69010        2.03184        4.05179
H          1.38323        3.72561        3.67912
H          0.60025        4.10899        6.08017
H          0.90383        2.41304        6.44172
H          4.38428        1.43934        4.07092
H          2.51918        4.58888        1.79906
H          0.89105        3.77292        8.54813
H          2.50773        3.08381        8.28260
H          2.20201        4.79503        7.91876
H          6.28088        1.41111        2.48308
H          4.41838        4.56223        0.20407
H          6.31407        2.97402        0.53766
