27
N-BUTYL_BENZOATE.gamout	Energy:    -577.3362477
O          3.73060        3.87533        4.80237
C          3.93520        4.00055        3.47879
O          3.45636        4.89736        2.81753
C          4.80748        2.92188        2.92306
C          2.90359        4.87175        5.43612
C          5.08206        2.93459        1.54622
C          5.35233        1.91002        3.73070
C          2.76127        4.50833        6.90559
C          5.89030        1.94672        0.98361
C          6.16084        0.92343        3.16382
C          2.05565        3.17237        7.18578
C          6.43057        0.93959        1.79140
C          0.58636        3.12720        6.75495
H          3.38084        5.85382        5.31044
H          1.93761        4.90805        4.91408
H          4.65172        3.72789        0.93499
H          5.14028        1.90290        4.79842
H          3.76504        4.49672        7.35870
H          2.20842        5.32961        7.39112
H          6.10063        1.96060       -0.08719
H          6.58207        0.13908        3.79497
H          2.61086        2.36197        6.68895
H          2.11980        2.97150        8.26679
H          7.06295        0.16676        1.35046
H          0.00623        3.93002        7.23637
H          0.47175        3.23836        5.66667
H          0.12500        2.16878        7.03349
