15
N-BUTANOL.gamout	Energy:    -233.3642443
C          1.27461        4.19796        0.92346
C          0.26853        4.60134       -0.15873
C         -0.22415        6.03308       -0.00804
C          1.77679        2.75969        0.77984
O         -1.14970        6.31040       -1.05365
H          2.13392        4.88933        0.89853
H          0.81166        4.32543        1.91687
H         -0.60250        3.92650       -0.13453
H          0.72217        4.49153       -1.15734
H         -0.70386        6.16221        0.98043
H          0.63326        6.73047       -0.05254
H          0.94634        2.03936        0.83839
H          2.49440        2.50871        1.57370
H          2.28029        2.60819       -0.18754
H         -1.47348        7.21326       -0.97314
