30
N-BUTYLCYCLOHEXANE.gamout	Energy:    -392.5857804
C         -0.91735       -0.72120       -0.27659
C         -2.09444        0.13903        0.19603
C         -3.45702       -0.41424       -0.23631
C         -4.64073        0.43083        0.23987
C          0.46840       -0.27172        0.21247
C          1.53865       -1.33360       -0.10033
C          2.93616       -0.92344        0.38034
C          3.34737        0.44269       -0.18397
C          2.29279        1.51381        0.12236
C          0.89604        1.09476       -0.35606
H         -1.08604       -1.75789        0.06204
H         -0.91272       -0.76313       -1.38052
H         -2.06758        0.21294        1.29746
H         -1.99026        1.16873       -0.18199
H         -3.48097       -0.49468       -1.33623
H         -3.56160       -1.44393        0.14460
H         -4.58195        1.45549       -0.15830
H         -5.59842       -0.00107       -0.08490
H         -4.65960        0.50117        1.33850
H          0.41935       -0.17123        1.31397
H          1.24663       -2.29486        0.35116
H          1.56513       -1.49932       -1.19247
H          2.94043       -0.87777        1.48339
H          3.67282       -1.69130        0.09787
H          4.32775        0.74533        0.21550
H          3.46768        0.35842       -1.27833
H          2.26038        1.68856        1.21200
H          2.57773        2.47312       -0.33669
H          0.88907        1.03544       -1.45949
H          0.16456        1.86833       -0.08153
