30
N-CAPRINITRILE.gamout	Energy:    -446.6520604
C        103.97341       20.01468        0.00006
C        102.67715       19.19837       -0.00016
C        102.91070       17.68462        0.00006
C        103.74587       21.52925       -0.00015
C        101.61258       16.87284       -0.00013
C        105.04277       22.34440        0.00011
C        101.87573       15.35395        0.00019
C        104.81714       23.85985       -0.00007
C        100.64832       14.55439        0.00004
C        106.11520       24.67047        0.00018
N         99.66830       13.93715       -0.00002
H        104.57653       19.73749        0.88189
H        104.57692       19.73731       -0.88145
H        102.07342       19.47356       -0.88185
H        102.07300       19.47375        0.88118
H        103.51361       17.40929        0.88258
H        103.51397       17.40909       -0.88215
H        103.14232       21.80634       -0.88175
H        103.14187       21.80652        0.88109
H        101.00767       17.13252       -0.88255
H        101.00725       17.13279        0.88194
H        105.64637       22.06688        0.88184
H        105.64681       22.06675       -0.88129
H        102.46971       15.07061        0.88405
H        102.47008       15.07033       -0.88334
H        104.21335       24.13469       -0.88134
H        104.21291       24.13485        0.88085
H        105.91354       25.75144        0.00007
H        106.72491       24.44367        0.88858
H        106.72540       24.44352       -0.88784
