18
N-CAPRONITRILE.gamout	Energy:    -289.6171911
C         -0.03416       -0.06407        0.00011
C          1.26782        0.74004       -0.00010
C          1.04533        2.25611        0.00009
C          2.35054        3.05670       -0.00010
C          2.10125        4.57788        0.00013
C          3.33595        5.36617        0.00009
N          4.32155        5.97443       -0.00010
H          0.16495       -1.14516        0.00001
H         -0.64256        0.16447        0.88875
H         -0.64295        0.16459       -0.88823
H          1.87014        0.46388       -0.88151
H          1.87051        0.46371        0.88100
H          0.44417        2.53598        0.88260
H          0.44380        2.53615       -0.88211
H          2.95326        2.79177       -0.88249
H          2.95368        2.79154        0.88192
H          1.50999        4.86687        0.88396
H          1.50968        4.86716       -0.88339
