19
N-CAPROYL_CHLORIDE.gamout	Energy:    -770.1098796
C         35.05752       30.08276       -0.00015
C         36.33720       29.24491        0.00008
C         35.31125       31.56705        0.00005
C         36.05124       27.74009       -0.00012
Cl        33.74483       32.52718       -0.00017
O         36.34778       32.13779        0.00030
C         37.32421       26.88714        0.00012
C         37.04968       25.38228       -0.00008
H         34.42545       29.86296       -0.87599
H         34.42508       29.86280        0.87540
H         36.94360       29.51048        0.87975
H         36.94404       29.51063       -0.87923
H         35.43997       27.48105       -0.88213
H         35.43957       27.48090        0.88157
H         37.93280       27.15050        0.88112
H         37.93325       27.15064       -0.88052
H         37.98595       24.80615        0.00014
H         36.47275       25.08287       -0.88842
H         36.47226       25.08273        0.88790
