34
N-DECYLAMINE.gamout	Energy:    -449.0647726
C         70.00449       10.03219        0.00856
C         71.29709        9.21028        0.00953
C         71.06584        7.69673        0.01395
C         70.23742       11.54558        0.00273
C         72.36066        6.87783        0.01205
C         68.94595       12.36932       -0.00155
C         72.12971        5.36444        0.01174
C         69.18163       13.88291       -0.00813
C         73.42521        4.55245        0.01743
C         67.89147       14.70511       -0.01443
N         73.14914        3.11711       -0.02199
H         69.39871        9.75272       -0.87085
H         69.39974        9.75920        0.89076
H         71.90421        9.48929        0.88828
H         71.90052        9.48397       -0.87336
H         70.45905        7.41768       -0.86467
H         70.46321        7.42236        0.89713
H         70.84352       11.82399        0.88237
H         70.84344       11.81666       -0.87928
H         72.96635        7.15880        0.89113
H         72.96139        7.15643       -0.87115
H         68.34110       12.09022       -0.88197
H         68.33911       12.09813        0.88002
H         71.53645        5.06987       -0.86866
H         71.52771        5.08730        0.89549
H         69.78844       14.15700        0.87145
H         69.79094       14.14866       -0.88859
H         74.03720        4.86035        0.88988
H         74.01237        4.80675       -0.87956
H         68.10259       15.78438       -0.01928
H         67.28087       14.47970       -0.90260
H         67.27694       14.48857        0.87328
H         74.00059        2.56645       -0.08744
H         72.65053        2.80816        0.80918
