29
N-HEPTYL_ACETATE.gamout	Energy:    -503.6213347
C          6.93481        1.41148        2.85204
C          5.80818        2.28584        2.29287
C          8.26030        2.14821        2.92915
C          4.46600        1.55322        2.20877
O          9.24237        1.24462        3.47246
C          3.32693        2.41461        1.65726
C         10.49567        1.71141        3.62480
C          1.98561        1.67894        1.57783
C         11.40719        0.65562        4.19910
O         10.82608        2.83817        3.33428
C          0.84692        2.54056        1.02885
H          7.05979        0.51563        2.22236
H          6.66773        1.05424        3.85952
H          6.08895        2.64964        1.28943
H          5.69111        3.18583        2.92143
H          8.19799        3.03570        3.57632
H          8.60056        2.48533        1.93866
H          4.19142        1.18564        3.21262
H          4.58162        0.65548        1.57657
H          3.60163        2.78153        0.65282
H          3.21069        3.31409        2.28747
H          1.71680        1.31173        2.58277
H          2.10334        0.78117        0.94710
H         11.40971       -0.23215        3.55090
H         12.42076        1.05733        4.29057
H         11.03753        0.34058        5.18543
H         -0.09824        1.98001        0.99056
H          0.68281        3.43049        1.65654
H          1.07065        2.89092        0.00928
