30
N-HEXYLBENZENE.gamout	Energy:    -467.4967292
C          4.97396        3.00613        0.93577
C          3.69091        3.30736        0.15691
C          2.51867        3.73288        1.04567
C          1.22697        4.01042        0.26986
C          0.05816        4.43843        1.15984
C          6.14774        2.57925        0.03494
C          7.40989        2.26517        0.80776
C          7.70633        0.95059        1.20226
C          8.85525        0.66227        1.94443
C          9.73319        1.68820        2.30659
C          9.45257        3.00185        1.91805
C          8.30323        3.28472        1.17501
H          5.27125        3.89435        1.51773
H          4.78041        2.21039        1.67439
H          3.89165        4.09942       -0.58570
H          3.40205        2.41456       -0.42480
H          2.32906        2.94722        1.79783
H          2.80261        4.63551        1.61437
H          1.41963        4.79247       -0.48411
H          0.94636        3.10661       -0.29703
H          0.29807        5.35992        1.71246
H         -0.84754        4.63088        0.56654
H         -0.18515        3.65969        1.89918
H          5.84676        1.69482       -0.54865
H          6.34919        3.38275       -0.69205
H          7.02860        0.14108        0.92135
H          9.06824       -0.36794        2.23715
H         10.63260        1.46460        2.88300
H         10.13372        3.81031        2.19155
H          8.09646        4.31397        0.87217
