26
N-HEPTYL_FORMATE.gamout	Energy:    -464.3446742
C         86.87376       10.19787       -0.17996
C         85.61884        9.33345       -0.34074
C         85.84315        7.86561        0.03579
C         86.62934       11.65119       -0.56250
C         84.59163        6.99699       -0.11961
O         87.84058       12.42182       -0.48906
C         84.81247        5.52840        0.25671
C         88.04315       13.22404        0.56542
C         83.55922        4.66471        0.09989
O         89.04740       13.85854        0.72217
H         87.22788       10.15402        0.86326
H         87.68937        9.80262       -0.80561
H         85.26721        9.39056       -1.38536
H         84.80424        9.74593        0.27958
H         86.19950        7.80842        1.07872
H         86.65461        7.45151       -0.58687
H         86.28673       11.73219       -1.60313
H         85.86116       12.10795        0.08404
H         84.23587        7.05513       -1.16316
H         83.77995        7.41322        0.50245
H         85.16895        5.47255        1.29915
H         85.62411        5.11477       -0.36530
H         87.18110       13.24666        1.27212
H         83.75449        3.61923        0.37870
H         83.20024        4.67252       -0.94094
H         82.74046        5.03391        0.73685
