23
N-HEXYL_FORMATE.gamout	Energy:    -425.0860344
C         86.10455        9.93896        0.17512
C         84.88239        9.02322        0.30267
C         85.26819        7.55484        0.41982
C         85.74104       11.42241        0.05550
O         84.10541        6.72096        0.55621
C         86.95919       12.33607       -0.11702
C         83.69858        5.99107       -0.49174
C         86.59819       13.81790       -0.23756
O         82.71771        5.30359       -0.47119
H         86.76399        9.79686        1.04855
H         86.69649        9.63849       -0.70655
H         84.22665        9.15160       -0.57393
H         84.28713        9.30449        1.18521
H         85.87495        7.37583        1.31799
H         85.85515        7.22989       -0.45563
H         85.05766       11.56230       -0.79956
H         85.17686       11.73254        0.95151
H         87.64088       12.19249        0.73804
H         87.52119       12.01956       -1.01158
H         84.36893        6.08187       -1.37778
H         87.49589       14.43880       -0.36767
H         85.93822       13.99756       -1.10013
H         86.07273       14.17336        0.66203
