23
N-HEPTANE.gamout	Energy:    -276.0061198
C          4.93525        1.11763        1.61631
C          3.68998        1.86933        1.13760
C          2.37189        1.20499        1.54492
C          6.25261        1.78679        1.21136
C          1.12724        1.95385        1.05725
C          7.49540        1.03078        1.68394
C         -0.18760        1.29015        1.47026
H          4.91400        0.08765        1.21886
H          4.90065        1.01817        2.71549
H          3.71465        2.90071        1.53087
H          3.72336        1.96437        0.03813
H          2.34984        0.17188        1.15566
H          2.33373        1.11443        2.64472
H          6.27191        2.81467        1.61170
H          6.27969        1.89021        0.11329
H          1.15628        2.98744        1.44200
H          1.16757        2.03957       -0.04193
H          7.51292        0.94166        2.78138
H          8.41894        1.54195        1.37560
H          7.52229        0.01134        1.26854
H         -0.27167        1.22469        2.56615
H         -0.25712        0.26631        1.07119
H         -1.05663        1.85342        1.10047
