23
N-HEPTANOIC_ACID.gamout	Energy:    -425.1130517
C          4.73510        1.13748        1.32929
C          3.90912        1.26641        2.62006
C          2.40085        1.26751        2.35805
C          6.22038        1.09800        1.60700
C          1.56399        1.39631        3.63426
O          6.89147        2.10787        1.00567
O          6.77928        0.27537        2.29311
C          0.05300        1.39726        3.37955
C         -0.78046        1.53109        4.65535
H          4.51280        1.95803        0.63437
H          4.48076        0.19067        0.82663
H          4.17273        0.43791        3.29497
H          4.19353        2.19548        3.14085
H          2.14864        2.09458        1.67182
H          2.12308        0.33853        1.83081
H          1.81704        0.57023        4.32136
H          1.84501        2.32524        4.16001
H          7.83039        2.01607        1.23503
H         -0.22405        0.46920        2.85189
H         -0.19392        2.22235        2.68997
H         -0.54634        2.46856        5.18281
H         -1.85743        1.53093        4.43375
H         -0.58154        0.70041        5.35012
