20
N-HEXANE.gamout	Energy:    -236.7471382
C          3.08730        1.08967        1.94377
C          2.98160        1.47851        3.42140
C          3.92973        0.69604        4.33601
C          2.11982        1.85233        1.03282
C          3.82242        1.08810        5.81012
C          2.22996        1.46241       -0.44157
H          2.90618        0.00548        1.83785
H          4.12177        1.25836        1.59544
H          3.18329        2.55895        3.52862
H          1.94263        1.32970        3.76530
H          3.72722       -0.38271        4.22485
H          4.96680        0.84527        3.98973
H          1.08760        1.68257        1.38386
H          2.30111        2.93512        1.14222
H          4.49641        0.48455        6.43511
H          4.08478        2.14688        5.96208
H          2.79818        0.94463        6.18922
H          2.04760        0.38568       -0.58498
H          1.49999        2.00887       -1.05612
H          3.23290        1.68243       -0.84020
