21
N-METHYLDIETHANOLAMINE.gamout	Energy:    -403.0208882
O          3.29546       -1.41872       -0.63419
O         -2.43839        2.63507       -0.62312
N         -0.09275       -0.13187        0.07000
C          1.36160       -0.17869       -0.03988
C         -0.62147        1.22400       -0.04378
C         -0.58166       -0.81893        1.25802
C          1.89000       -1.55042       -0.45333
C         -2.08763        1.26459       -0.46773
H          1.68067        0.53335       -0.81261
H          1.86132        0.12909        0.90455
H         -0.04932        1.76248       -0.81108
H         -0.50533        1.79631        0.90222
H         -0.24752       -0.32225        2.19596
H         -1.67790       -0.85149        1.26436
H         -0.22548       -1.85598        1.27934
H          1.38995       -1.86023       -1.38734
H          1.67307       -2.30894        0.31821
H         -2.20368        0.70886       -1.41420
H         -2.73201        0.78760        0.29029
H          3.67552       -2.26510       -0.89011
H         -3.36385        2.71229       -0.87527
