17
N-METHYLPYRROLIDINE.gamout	Energy:    -251.5550667
C          2.13463       -0.04960        0.03601
N          0.71829       -0.02036        0.31664
C          0.01150        1.16265       -0.15917
C         -1.47596        0.81073        0.03190
C         -1.50977       -0.74460        0.02885
C         -0.04249       -1.15615       -0.18849
H          2.62483        0.82991        0.47769
H          2.58895       -0.94824        0.47777
H          2.35664       -0.05421       -1.05589
H          0.32523        2.05785        0.39698
H          0.22612        1.34960       -1.23689
H         -1.84626        1.20506        0.98760
H         -2.09874        1.24557       -0.76143
H         -1.87648       -1.12657        0.99083
H         -2.16429       -1.14995       -0.75444
H          0.15399       -1.32100       -1.27337
H          0.23722       -2.07978        0.33877
