9
N-METHYLFORMAMIDE.gamout	Energy:    -208.9516429
C         -1.48642        0.49045        0.00000
N         -0.57376       -0.64093        0.00000
C          0.77344       -0.48100        0.00000
O          1.33981        0.59676       -0.00000
H         -1.33024        1.11926       -0.88881
H         -2.51650        0.11641       -0.00000
H         -1.33025        1.11926        0.88881
H         -0.94406       -1.58108       -0.00000
H          1.32252       -1.45006       -0.00000
