19
N-NITROSODIETHANOLAMINE.gamout	Energy:    -492.9371372
O          3.11902       -1.57288       -0.14417
O         -3.07173       -1.12943       -0.39952
O         -0.85306        2.38378        0.07302
N          0.16180        0.52367        0.50054
N          0.22293        1.82311        0.22561
C          1.43849       -0.14436        0.70859
C         -1.12243       -0.14822        0.68264
C          1.89181       -0.96214       -0.50114
C         -1.79908       -0.55567       -0.63774
H          1.36302       -0.80010        1.58817
H          2.18307        0.63175        0.92257
H         -1.78254        0.54873        1.21923
H         -0.95513       -1.03393        1.30768
H          2.00643       -0.28701       -1.36720
H          1.13109       -1.72099       -0.75869
H         -1.20380       -1.32810       -1.14353
H         -1.86427        0.31637       -1.30571
H          3.48954       -2.04479       -0.89691
H         -3.71531       -0.43448       -0.21998
