31
N-NONYLAMINE.gamout	Energy:    -409.8061897
C         86.98484       10.04201        0.00737
C         85.67547        9.24682        0.00287
C         85.87663        7.72888        0.00306
C         86.78323       11.56010        0.00901
C         84.56750        6.93305       -0.00249
C         88.09511       12.35081        0.00948
C         84.76986        5.41461       -0.00225
C         87.89396       13.86565        0.02321
C         83.46113        4.62171       -0.00878
N         89.17657       14.56798       -0.01400
H         87.58166        9.75250        0.88959
H         87.58652        9.75451       -0.87198
H         85.07929        9.53604       -0.87988
H         85.07286        9.53520        0.88162
H         86.47312        7.44055        0.88596
H         86.47967        7.44128       -0.87561
H         86.18479       11.84850       -0.87252
H         86.18219       11.84498        0.88999
H         83.97183        7.22197       -0.88594
H         83.96409        7.22127        0.87597
H         88.69361       12.05844        0.89066
H         88.69753       12.08350       -0.87347
H         85.36772        5.13060        0.88023
H         85.37537        5.13153       -0.87982
H         87.32173       14.16299       -0.87012
H         87.27071       14.13753        0.89966
H         83.64757        3.53798       -0.00865
H         82.85871        4.85825       -0.89955
H         82.84992        4.85693        0.87636
H         89.05765       15.57559       -0.06794
H         89.73335       14.37126        0.81440
