29
N-NONANE.gamout	Energy:    -354.5235677
C          6.83156        0.89043        1.57616
C          5.82462        1.93728        2.05889
C          4.45435        1.83021        1.38507
C          8.19225        0.98185        2.27207
C          3.45316        2.88717        1.85832
C          9.21028       -0.05001        1.77868
C          2.06759        2.75765        1.21910
C         10.56164        0.04152        2.48965
C          1.07666        3.82405        1.68808
H          6.97405        0.99691        0.48654
H          6.40717       -0.11740        1.72894
H          6.23676        2.94690        1.88408
H          5.70329        1.84657        3.15266
H          4.03396        0.82561        1.56685
H          4.58291        1.91045        0.29132
H          8.05347        0.86494        3.36124
H          8.60485        1.99593        2.12715
H          3.85819        3.89270        1.64696
H          3.35586        2.82630        2.95669
H          9.35526        0.07926        0.69272
H          8.78984       -1.06175        1.90919
H          1.66129        1.75533        1.43769
H          2.17291        2.80681        0.12183
H         11.01558        1.03521        2.35087
H         11.27131       -0.70605        2.10617
H         10.45397       -0.12410        3.57300
H          0.08922        3.69226        1.22166
H          1.43089        4.83632        1.43731
H          0.93791        3.78492        2.78000
