30
N-NONYL_MERCAPTAN.gamout	Energy:    -752.5463158
C         86.98969       10.04629        0.00011
C         85.68054        9.25120       -0.00009
C         85.88261        7.73316        0.00012
C         86.78400       11.56417       -0.00011
C         84.57306        6.93858       -0.00008
C         88.09924       12.35296        0.00012
C         84.77408        5.41983        0.00010
C         87.87797       13.86486       -0.00011
C         83.46347        4.62967       -0.00004
S         89.50919       14.73259        0.00039
H         87.58852        9.75980        0.88170
H         87.58890        9.75961       -0.88115
H         85.08187        9.53865       -0.88172
H         85.08144        9.53887        0.88118
H         86.48164        7.44576        0.88157
H         86.48203        7.44557       -0.88101
H         86.18639       11.85042       -0.88252
H         86.18588       11.85066        0.88188
H         83.97394        7.22623       -0.88166
H         83.97361        7.22637        0.88123
H         88.69485       12.07070        0.88358
H         88.69536       12.07046       -0.88291
H         85.37378        5.13538        0.88115
H         85.37408        5.13519       -0.88070
H         87.31335       14.16995       -0.89194
H         87.31265       14.17013        0.89121
H         83.64791        3.54562        0.00007
H         82.85754        4.86667       -0.88833
H         82.85724        4.86684        0.88800
H         89.03302       15.99899        0.00000
