26
N-OCTANE.gamout	Energy:    -315.2647143
C          3.85529        2.38254        1.67199
C          2.83142        3.03884        2.60279
C          1.37678        2.73767        2.23317
C          5.30951        2.67031        2.05440
C          0.35662        3.40786        3.15830
C          6.33265        2.02598        1.11449
C         -1.09533        3.09327        2.79675
C          7.78353        2.30619        1.50790
H          3.67589        2.72324        0.63697
H          3.69056        1.29071        1.66406
H          2.98904        4.13172        2.60288
H          3.01918        2.70605        3.63896
H          1.21615        1.64515        2.24705
H          1.18914        3.05796        1.19291
H          5.49138        2.31793        3.08524
H          5.47280        3.76234        2.07465
H          0.51564        4.49944        3.13691
H          0.55557        3.09372        4.19720
H          6.15213        2.38573        0.08717
H          6.16019        0.93657        1.08837
H         -1.79891        3.59370        3.47827
H         -1.33235        3.42223        1.77265
H         -1.29251        2.01105        2.84901
H          8.00431        1.92264        2.51648
H          8.49002        1.83356        0.80975
H          7.99297        3.38738        1.51364
