29
N-OCTYL_FORMATE.gamout	Energy:    -503.6034005
C          0.50582       18.90551        0.57125
O          0.74846       19.67745       -0.49738
O          0.67604       17.71950        0.57541
C          0.57169       21.09994       -0.38886
C          1.90896       21.81270       -0.24187
C          1.76210       23.33766       -0.22803
C          3.09851       24.07222       -0.08347
C          5.48244       28.60078        0.21920
C          4.15007       27.86165        0.07923
C          4.29291       26.33637        0.06910
C          2.95941       25.59709       -0.07317
H          0.12139       19.47757        1.44771
H          0.05993       21.40866       -1.31068
H         -0.09515       21.32475        0.46061
H          2.39702       21.47416        0.68714
H          2.56286       21.50233       -1.07194
H          1.26693       23.66537       -1.15853
H          1.09306       23.63813        0.59697
H          3.59502       23.74519        0.84639
H          3.76705       23.77148       -0.90824
H          5.33741       29.69070        0.22280
H          5.99135       28.32708        1.15642
H          6.16248       28.35613       -0.61150
H          3.64789       28.18183       -0.84943
H          3.47996       28.15544        0.90490
H          4.79265       26.01204        0.99876
H          4.96352       26.03885       -0.75590
H          2.46086       25.92175       -1.00314
H          2.28939       25.89586        0.75178
