28
N-OCTYLAMINE.gamout	Energy:    -370.5475103
C         51.97235        0.02181       -0.00284
C         53.32299        0.74312       -0.00991
C         54.52717       -0.20390       -0.01092
C         50.76803        0.96830       -0.00185
C         55.87580        0.52063       -0.01139
C         49.41655        0.24719        0.00746
C         57.07570       -0.42647       -0.02423
C         48.21647        1.19654        0.00916
N         58.33477        0.31641        0.01758
H         51.91013       -0.64426       -0.88102
H         51.91645       -0.63701        0.88117
H         53.38613        1.40802        0.86871
H         53.37950        1.40264       -0.89329
H         54.46384       -0.86694       -0.89125
H         54.46732       -0.86422        0.87169
H         50.83175        1.63439        0.87631
H         50.82353        1.62721       -0.88603
H         55.95662        1.17534        0.87107
H         55.93315        1.18361       -0.89315
H         49.35665       -0.41915       -0.86969
H         49.36504       -0.41126        0.89105
H         56.99086       -1.10010       -0.90137
H         57.03636       -1.07024        0.86907
H         47.26590        0.64372        0.01664
H         48.23017        1.85115        0.89439
H         48.22090        1.84315       -0.88205
H         59.13962       -0.30117        0.07422
H         58.45517        0.89688       -0.80930
