26
N-OCTANOIC_ACID.gamout	Energy:    -464.3716968
C          5.00876        1.40738        1.00154
C          3.74846        0.76279        1.58469
C          2.46963        1.19371        0.84764
C          6.29358        0.99091        1.72357
C          1.22818        0.57979        1.45281
C          7.55802        1.63335        1.14563
O          0.53777       -0.17897        0.56994
O          0.86499        0.72267        2.59645
C          8.84371        1.21716        1.86787
C         10.10566        1.86018        1.28999
H          5.09166        1.14839       -0.06814
H          4.90689        2.50571        1.04182
H          3.64909        1.02341        2.64928
H          3.84179       -0.33482        1.53947
H          2.52379        0.93748       -0.21862
H          2.35393        2.28663        0.92652
H          6.20858        1.24966        2.79303
H          6.39255       -0.10767        1.68459
H          7.64150        1.37451        0.07553
H          7.45854        2.73218        1.18428
H         -0.23679       -0.53815        1.03214
H          8.75408        1.47511        2.93666
H          8.93810        0.11879        1.82971
H         10.05339        2.95851        1.34759
H         11.00566        1.53888        1.83389
H         10.23984        1.59020        0.23099
