23
N-OENANTHIC_ACID.gamout	Energy:    -425.1129035
C          6.43533        1.20571        1.30625
C          5.21349        1.21825        2.22324
C          3.89414        1.09066        1.45583
C          7.75223        1.33214        2.03671
C          2.66534        1.10207        2.37273
O          8.80246        1.30749        1.18183
O          7.89870        1.44409        3.22979
C          1.32222        0.91225        1.65301
C          0.93853        2.05434        0.70631
H          6.39018        2.02362        0.56802
H          6.47839        0.27978        0.70915
H          5.30306        0.40033        2.95451
H          5.21416        2.14835        2.81224
H          3.82192        1.91136        0.72346
H          3.89841        0.15543        0.86843
H          2.78019        0.30532        3.12593
H          2.64529        2.05173        2.93528
H          9.61358        1.39313        1.70747
H          0.53265        0.79741        2.41236
H          1.34390       -0.03763        1.09225
H          0.90733        3.01649        1.24088
H          1.65349        2.15603       -0.12298
H         -0.05389        1.88481        0.26431
