33
N-PENTYLCYCLOHEXANE.gamout	Energy:    -431.8445323
C          0.98180       -0.26152       -0.20383
C          1.41652        1.11584        0.33154
C          2.04176       -1.32367        0.14175
C         -0.41138       -0.68667        0.28534
C          2.81849        1.51128       -0.15143
C          3.44413       -0.93680       -0.34476
C          3.86322        0.43993        0.18706
C         -1.57349        0.19213       -0.19044
C         -2.94827       -0.36416        0.19411
C         -4.12018        0.49573       -0.29016
C         -5.49048       -0.08112        0.07146
H          0.93901       -0.18765       -1.30777
H          1.40144        1.08715        1.43604
H          0.69176        1.88581        0.03029
H          1.74335       -2.29384       -0.28591
H          2.06227       -1.46042        1.23791
H         -0.40877       -0.72736        1.38934
H         -0.59614       -1.72128       -0.05131
H          3.10951        2.47900        0.28569
H          2.79257        1.65927       -1.24510
H          3.45417       -0.92011       -1.44847
H          4.17336       -1.70262       -0.03831
H          4.84741        0.72569       -0.21575
H          3.97885        0.38269        1.28363
H         -1.47264        1.21065        0.21718
H         -1.52024        0.29637       -1.28831
H         -3.05129       -1.38362       -0.21641
H         -3.00466       -0.47347        1.29134
H         -4.02340        1.51026        0.13179
H         -4.04806        0.61526       -1.38453
H         -5.62552       -1.08189       -0.36695
H         -6.30651        0.55824       -0.29542
H         -5.60487       -0.17787        1.16230
