26
N-PENTYL_PROPIONATE.gamout	Energy:    -464.3624411
O         51.83699       29.22470       -0.67040
C         51.21494       30.00497        0.23558
C         49.98399       30.65944       -0.35752
O         51.60132       30.14799        1.37301
C         53.03042       28.53155       -0.24947
C         49.23270       31.54888        0.62913
C         54.27515       29.39481       -0.40788
C         55.55583       28.63069       -0.05630
C         56.82510       29.47577       -0.20603
C         58.10619       28.71664        0.14489
H         50.30795       31.22788       -1.24396
H         49.33993       29.85458       -0.74598
H         52.90368       28.21359        0.79410
H         53.07988       27.64527       -0.89549
H         48.35167       31.99401        0.14672
H         48.89825       30.97350        1.50285
H         49.87610       32.35999        0.99596
H         54.32522       29.75952       -1.44662
H         54.17960       30.27762        0.24250
H         55.48661       28.26098        0.98124
H         55.64033       27.73474       -0.69648
H         56.88941       29.84809       -1.24234
H         56.73953       30.36893        0.43524
H         58.99449       29.35323        0.02464
H         58.08503       28.36406        1.18769
H         58.23682       27.83454       -0.50135
