18
N-PENTANOL.gamout	Energy:    -272.6231579
C          1.42069        1.99388        1.75419
C          2.78088        1.68757        1.12119
C          3.92526        1.64077        2.13996
C          0.28549        2.04058        0.74211
C          5.28755        1.33531        1.51484
O         -0.92546        2.33074        1.43213
H          1.45851        2.96174        2.27999
H          1.17761        1.23448        2.51499
H          2.73227        0.72167        0.58838
H          3.01210        2.44753        0.35422
H          3.97083        2.60547        2.67263
H          3.69193        0.88270        2.90639
H          0.21130        1.07007        0.21662
H          0.49445        2.81455       -0.01996
H          5.28014        0.35958        1.00480
H          5.56225        2.09724        0.76890
H          6.08112        1.30998        2.27542
H         -1.65859        2.36459        0.80925
