23
N-PENTYL_ACETATE.gamout	Energy:    -425.1039448
C         -0.74463       -1.83929        0.10569
C          0.13390       -0.61364        0.10681
O          1.43883       -0.94288        0.06552
O         -0.26006        0.52924        0.14134
C          2.38907        0.14117        0.06022
C          3.78765       -0.44810        0.01776
C          4.87259        0.63381        0.01005
C          6.29497        0.06468       -0.03126
C          7.37990        1.14295       -0.03861
H         -0.50378       -2.47323        0.97105
H         -0.55278       -2.43717       -0.79683
H         -1.79544       -1.53749        0.14071
H          2.23013        0.75286        0.96051
H          2.18834        0.78114       -0.81172
H          3.88401       -1.08195       -0.87831
H          3.92430       -1.11012        0.88789
H          4.76362        1.27157        0.90433
H          4.72352        1.29935       -0.85786
H          6.40104       -0.57375       -0.92433
H          6.44054       -0.60117        0.83591
H          7.27715        1.80206       -0.91435
H          8.38570        0.70017       -0.06785
H          7.31656        1.77414        0.86113
