20
N-PENTYL_FORMATE.gamout	Energy:    -385.8271224
C          3.78221        0.37724        0.45720
C          2.41997       -0.24985        0.19339
C          2.47361       -1.78018        0.13288
O          3.67517        1.80354        0.60150
C          1.10477       -2.41660       -0.13200
C          4.02450        2.59216       -0.42460
C          1.14410       -3.94494       -0.19221
O          3.91571        3.78513       -0.40071
H          4.21014        0.01252        1.40089
H          4.49366        0.13974       -0.35171
H          2.02060        0.14916       -0.75359
H          1.72821        0.07298        0.98732
H          2.87893       -2.17190        1.08190
H          3.17902       -2.09761       -0.65494
H          0.70279       -2.02100       -1.07958
H          0.40242       -2.09668        0.65555
H          4.43253        2.02600       -1.29415
H          0.14525       -4.36140       -0.38568
H          1.50725       -4.37138        0.75543
H          1.81361       -4.29477       -0.99323
