18
N-PROPYLCYCLOPROPANE.gamout	Energy:    -235.5102957
C          2.45317        1.15218        2.32883
C          2.11500        1.99890        1.09120
C          2.23024        1.85615        3.65453
C          3.01128        3.22629        0.89755
C          1.91161        1.06208        4.89596
C          0.84707        1.92191        4.25605
H          3.50384        0.81782        2.26606
H          1.83969        0.23653        2.31055
H          1.06236        2.32037        1.15545
H          2.18853        1.35781        0.19778
H          2.85364        2.73941        3.81610
H          2.91217        3.93705        1.73095
H          4.07139        2.93522        0.82921
H          2.75111        3.76266       -0.02655
H          1.81881       -0.02161        4.79682
H          2.33768        1.38606        5.84688
H          0.53944        2.83519        4.76790
H          0.03743        1.41707        3.72415
