10
N-PROPIONALDEHYDE.gamout	Energy:    -192.8994619
C          0.58930        1.22872        0.74256
O          0.03346        1.98718       -0.01503
C          2.07332        0.94630        0.74616
C          2.66065        0.80406        2.15361
H         -0.00527        0.66532        1.50824
H          2.20705       -0.00090        0.19072
H          2.57342        1.73083        0.16083
H          3.72581        0.54101        2.10380
H          2.57163        1.74246        2.72047
H          2.14752        0.01463        2.72337
