21
N-PROPYL_METHACRYLATE.gamout	Energy:    -423.8802733
C         86.99404       31.07640       -0.09744
C         85.73829       30.25690       -0.08326
O         84.72445       30.80952       -0.77404
O         85.65074       29.19384        0.49535
C         88.15419       30.47371        0.64820
C         87.04586       32.25710       -0.73329
C         83.47167       30.09936       -0.81660
C         82.59408       30.42883        0.38497
C         81.22517       29.74926        0.29586
H         87.89629       30.30756        1.70476
H         88.41502       29.48736        0.23601
H         89.03444       31.12626        0.59425
H         87.96198       32.85013       -0.73736
H         86.18177       32.65846       -1.26046
H         82.99984       30.42806       -1.75204
H         83.67396       29.02100       -0.87117
H         83.11493       30.10828        1.29901
H         82.47291       31.52166        0.44474
H         80.60677       30.00043        1.16855
H         80.67691       30.06645       -0.60485
H         81.32512       28.65386        0.26077
