24
N-PROPYLCYCLOPENTANE.gamout	Energy:    -314.0572438
C          1.86235        1.16725        1.55336
C          2.73584        2.35882        1.96068
C          3.93262        2.61783        1.02623
C          0.65453        0.95927        2.47172
C          4.68466        3.92008        1.37491
C          5.05595        1.56408        1.15123
C          5.65582        3.53894        2.51886
C          5.89333        2.00686        2.37571
H          1.51346        1.31871        0.51781
H          2.46799        0.24720        1.53941
H          2.10725        3.26532        1.98090
H          3.08843        2.21338        2.99614
H          3.55063        2.65828       -0.00698
H          0.04680        0.10259        2.14661
H          0.00552        1.84859        2.47919
H          0.97233        0.77106        3.50900
H          4.00803        4.74369        1.64586
H          5.25774        4.25127        0.49498
H          5.67703        1.59496        0.24251
H          4.68229        0.53507        1.24393
H          5.21147        3.77023        3.49738
H          6.59231        4.11033        2.45980
H          6.95641        1.76189        2.24610
H          5.56245        1.47935        3.28201
