12
N-PROPANOL.gamout	Energy:    -194.1057077
C         -0.19630        1.03618        0.66922
C          1.22000        0.51821        0.87090
C          2.16660        1.57912        1.43501
O         -0.99368       -0.01846        0.14342
H         -0.60592        1.39253        1.63326
H         -0.18360        1.89928       -0.02312
H          1.59365        0.14968       -0.09720
H          1.17911       -0.35312        1.54317
H          1.82563        1.94251        2.41691
H          2.24105        2.44897        0.76398
H          3.17851        1.17137        1.56473
H         -1.89633        0.28710        0.00725
