23
n-PROPYL_ISOBUTYRATE.gamout	Energy:    -425.1032587
C         -5.77339       -0.35465        0.04325
C         -4.41470        0.28363       -0.25397
H         -6.59252        0.32679       -0.22416
H         -5.87593       -0.59900        1.11162
H         -5.91288       -1.28587       -0.52692
C         -3.25766       -0.63333        0.10688
H         -4.30664        1.22597        0.30545
H         -4.34156        0.54374       -1.32144
C         -0.87875       -0.60106        0.05680
C          0.33779        0.23262       -0.33067
C          1.63071       -0.56202       -0.13750
H          1.77926       -0.81401        0.92181
H          2.49168        0.03025       -0.47726
H          1.60778       -1.50360       -0.70076
C          0.35222        1.57651        0.42144
H          0.20646        0.45276       -1.40439
H         -0.56590        2.14828        0.23960
H          1.20848        2.18085        0.09012
H          0.45386        1.41484        1.50526
O         -2.02896        0.05004       -0.20248
H         -3.29373       -1.57508       -0.46045
H         -3.26201       -0.89131        1.17627
O         -0.84624       -1.71321        0.53173
