20
N-PROPYL_PROPIONATE.gamout	Energy:    -385.8452955
C          0.28332        0.48421        4.35200
C          1.66521        0.03615        3.87117
C          2.34650        1.09017        3.01421
O          3.63276        0.58054        2.61446
C          4.40088        1.37675        1.84681
C          5.71972        0.70981        1.51188
O          4.05960        2.47961        1.48642
C          6.63460        1.56718        0.64329
H          0.34730        1.39941        4.96055
H         -0.38920        0.69253        3.50578
H         -0.18682       -0.29420        4.96846
H          1.58205       -0.89407        3.28781
H          2.31232       -0.19126        4.73254
H          2.49336        2.03135        3.56490
H          1.75934        1.32296        2.11331
H          6.20213        0.44263        2.46578
H          5.48775       -0.25230        1.02761
H          6.87637        2.51542        1.14194
H          7.57263        1.03438        0.43512
H          6.15404        1.81176       -0.31355
