19
N-PROPOXYETHANOL.gamout	Energy:    -347.7481071
O          0.03016       -0.33642        0.00225
O          3.57777        0.26614        0.00589
C         -1.15973        0.42672        0.00255
C         -2.35683       -0.51307       -0.00018
C          1.21102        0.43265        0.00365
C         -3.69490        0.22795        0.00018
C          2.39511       -0.52109        0.00449
H         -1.18451        1.08731       -0.88720
H         -1.18617        1.08404        0.89468
H         -2.28121       -1.16465       -0.88440
H         -2.28253       -1.16779        0.88182
H          1.25986        1.08525       -0.88865
H          1.25813        1.08468        0.89646
H         -3.79937        0.87045       -0.88769
H         -4.53446       -0.48119       -0.00171
H         -3.80065        0.86722        0.89022
H          2.33923       -1.16656       -0.88919
H          2.33753       -1.16712        0.89766
H          4.35144       -0.30537        0.00650
