13
N-PROPYLAMINE.gamout	Energy:    -174.2540457
C          3.37309        1.69592        1.08501
C          2.12719        0.99831        1.62903
C          0.85052        1.82289        1.45623
N          4.55983        0.85759        1.24551
H          3.23881        1.88799        0.00829
H          3.46658        2.68963        1.57029
H          2.02638        0.02385        1.12649
H          2.28050        0.77788        2.69979
H          0.65056        2.03048        0.39349
H         -0.02227        1.29277        1.86253
H          0.92544        2.79063        1.97624
H          5.38405        1.28005        0.82809
H          4.76823        0.68756        2.22670
