14
N-PROPYL_FORMATE.gamout	Energy:    -307.3164118
O         -1.50510        0.35127        1.81923
C         -0.08013        0.56449        1.93857
C          0.32850        0.24609        3.36632
C         -2.06884        0.63451        0.64234
C          1.82969        0.43909        3.59507
O         -1.49541        1.04613       -0.33295
H          0.14307        1.60806        1.67225
H          0.43347       -0.08034        1.20978
H          0.03726       -0.79006        3.59837
H         -0.24479        0.89177        4.04970
H         -3.15629        0.43320        0.69374
H          2.42409       -0.21552        2.93943
H          2.09835        0.20484        4.63413
H          2.13360        1.47823        3.39656
