15
N-VALERONITRILE.gamout	Energy:    -250.3585593
C          4.59733        1.14461        0.90355
C          3.21572        1.82153        0.97988
C          2.10787        0.83666        1.36539
C          5.67711        2.06733        0.54494
C          0.72604        1.48823        1.44417
N          6.52186        2.80555        0.25717
H          4.58379        0.33084        0.16054
H          4.84936        0.68210        1.87162
H          2.98518        2.28248        0.00663
H          3.25540        2.64528        1.70963
H          2.35417        0.37525        2.33662
H          2.08669        0.01152        0.63361
H          0.70932        2.29528        2.19223
H          0.43696        1.92426        0.47591
H         -0.04267        0.75448        1.72449
