18
NAPHTHALENE.gamout	Energy:    -385.3850095
C          3.41368        1.81379        2.13689
C          2.83657        3.08705        2.47356
C          3.53227        3.93721        3.37917
C          1.59055        3.45090        1.88950
C          2.71778        0.96346        1.23159
C          4.65945        1.44974        2.72135
C          4.73768        3.55349        3.92753
C          0.94267        2.60341        1.01604
C          1.51216        1.34701        0.68359
C          5.30707        2.29702        3.59521
H          3.09315        4.90410        3.63407
H          1.15151        4.41785        2.14460
H          3.15681       -0.00350        0.97677
H          5.09858        0.48285        2.46619
H          5.25924        4.21634        4.62036
H         -0.01240        2.89720        0.57669
H          0.99032        0.68397       -0.00885
H          6.26194        2.00305        4.03488
