32
NARINGENIN.gamout	Energy:    -953.7807486
O          0.08693       -0.70610       -0.06619
O          1.71330        2.99718        0.54134
O          4.15615        1.82035        0.31520
O          4.18434       -2.88614       -0.62029
O         -6.23336       -0.56931       -0.37260
C         -0.68729        0.34187        0.53622
C         -0.21781        1.69602        0.00513
C         -2.15265        0.05934        0.28231
C          2.08288        0.66295        0.12780
C          1.27105        1.89460        0.27032
C          1.43538       -0.58588       -0.08341
C          3.50333        0.65695        0.10641
C          2.13890       -1.76669       -0.33377
C         -3.13455        0.75166        1.00879
C         -2.56772       -0.87259       -0.67157
C          4.21367       -0.51951       -0.14614
C          3.53089       -1.72258       -0.37117
C         -4.48979        0.53715        0.78021
C         -3.92600       -1.09933       -0.90395
C         -4.89289       -0.39257       -0.18388
H         -0.49249        0.30481        1.62428
H         -0.77298        2.52746        0.46429
H         -0.39904        1.73932       -1.08228
H          1.60676       -2.70501       -0.47765
H         -2.84240        1.47465        1.77276
H         -1.82708       -1.43381       -1.23629
H          5.30627       -0.49561       -0.16999
H         -5.24976        1.07702        1.34324
H         -4.23447       -1.83545       -1.65023
H          5.10937        1.68675        0.25220
H          5.13978       -2.75854       -0.60828
H         -6.39260       -1.23103       -1.05471
