31
NEODECANOATE-1.gamout	Energy:    -542.3307376
O         -5.45688        2.99476        0.00214
O         -3.43627        4.01387       -0.00530
C          2.31727       -1.35376       -0.00017
C          0.77045       -1.23036       -0.00060
C          0.16408        0.18016        0.00022
C         -1.37259        0.18897        0.00111
C          2.68004       -2.84862       -0.00040
C          2.91613       -0.69863        1.25397
C          2.91676       -0.69856       -1.25388
C         -1.98899        1.59444        0.00068
C         -3.51897        1.60372        0.00016
C         -4.20103        3.01788       -0.00152
H          0.39045       -1.77766       -0.88080
H          0.39020       -1.77889        0.87873
H          0.51868        0.74109       -0.87975
H          0.51904        0.74033        0.88052
H         -1.73518       -0.37042       -0.88067
H         -1.73518       -0.37165        0.88179
H          2.27408       -3.35440       -0.88931
H          2.27378       -3.35464        0.88821
H          3.77150       -2.99383       -0.00026
H          2.48037       -1.12648        2.16892
H          4.00505       -0.85609        1.29448
H          2.73626        0.38404        1.27054
H          4.00583       -0.85530       -1.29346
H          2.48203       -1.12697       -2.16899
H          2.73621        0.38397       -1.27068
H         -1.63003        2.16118        0.87548
H         -1.63007        2.16233       -0.87324
H         -3.90645        1.05897        0.87984
H         -3.90638        1.05656       -0.87779
