17
NEOPENTANOIC_ACID.gamout	Energy:    -346.5956848
C         -0.03547        0.29267        0.01458
C          1.32838        0.99996       -0.00617
C          1.13372        2.53299       -0.03205
C          2.15973        0.59608        1.23233
C          2.08677        0.57705       -1.26733
O          3.30542        1.16215       -1.36342
O          1.68694       -0.18915       -2.11129
H          0.08187       -0.79870        0.02059
H         -0.63294        0.55751       -0.86723
H         -0.59163        0.58894        0.91479
H          2.09533        3.06150       -0.04630
H          0.55513        2.84476       -0.91343
H          0.57968        2.84655        0.86441
H          3.14070        1.08787        1.23568
H          2.31779       -0.49151        1.26726
H          1.62239        0.88917        2.14584
H          3.71752        0.84432       -2.18235
