19
NEOPENTYL_GLYCOL.gamout	Energy:    -347.7616649
C          1.01553        0.86004        2.33025
C          2.03020        2.01447        2.13517
C          1.62659        3.22547        2.99526
C          3.45362        1.54939        2.48538
C          1.96781        2.45760        0.66169
O          1.06012        0.23654        3.59695
O          1.58678        2.85921        4.37787
H          1.22311        0.07110        1.59237
H         -0.00179        1.24451        2.11844
H          0.63280        3.58421        2.67477
H          2.35200        4.04344        2.84185
H          4.17825        2.36262        2.32913
H          3.74794        0.70651        1.84386
H          3.52601        1.21911        3.52756
H          2.28793        1.64099       -0.00023
H          2.62952        3.31598        0.47463
H          0.94799        2.74831        0.36746
H          1.05505        0.93481        4.26814
H          1.25594        3.59148        4.90769
