29
NIFLUMIC_ACID.gamout	Energy:   -1059.0836209
F         -3.56513        2.21878       -0.91256
F         -5.13604        0.97799       -0.07484
F         -3.67597        1.91261        1.22988
O          4.92472       -1.24679        0.00153
O          2.93878       -2.26295       -0.14191
N          0.72559       -0.71850       -0.05294
N          1.06884        1.58398        0.17374
C         -0.67238       -0.79412       -0.11660
C         -2.93020        0.08614       -0.08873
C         -1.54801        0.29774       -0.00690
C          1.57356        0.34584        0.06461
C         -1.21677       -2.08407       -0.30294
C         -3.46695       -1.18854       -0.27702
C          2.99730        0.12510        0.07402
C         -2.59121       -2.27452       -0.38173
C         -3.83035        1.29160        0.03702
C          3.82882        1.24789        0.19498
C          3.28144        2.52171        0.30177
C          1.88696        2.62452        0.28728
C          3.57580       -1.22378       -0.03375
H         -1.14429        1.29307        0.13987
H          1.21951       -1.60807       -0.12870
H         -0.54276       -2.93879       -0.38702
H         -4.54401       -1.33113       -0.33904
H         -2.98710       -3.28042       -0.52792
H          4.90768        1.10149        0.20242
H          3.90802        3.40778        0.39542
H          1.40592        3.60367        0.37371
H          5.19937       -2.17311       -0.07456
