10
NITROETHANE.gamout	Energy:    -283.9927535
N          0.54705       -0.01338       -0.05066
O          0.60859       -1.23014       -0.11034
O          1.47786        0.72560        0.22679
C         -0.77926        0.63578       -0.37226
C         -1.94551       -0.07716        0.29016
H         -0.67102        1.67801       -0.05772
H         -0.84840        0.59972       -1.46869
H         -2.01030       -1.12112       -0.03962
H         -1.85016       -0.05520        1.38440
H         -2.87693        0.43680        0.01464
