7
NITROMETHANE.gamout	Energy:    -244.7305503
N          0.09570        0.01240        0.00086
O          0.64198       -1.02742        0.32943
O          0.66683        1.04156       -0.31781
C         -1.40048        0.01345       -0.00824
H         -1.73118       -0.23577        1.00611
H         -1.74245        1.00296       -0.31898
H         -1.72085       -0.76999       -0.70374
