7
NITROMETHANE2.gamout	Energy:    -244.7305596
N          0.21937       -0.25125       -0.01246
O          0.77364       -0.89102        0.86588
O          0.77857        0.46950       -0.82237
C         -1.26765       -0.38588       -0.12481
H         -1.66153        0.54201       -0.54789
H         -1.45626       -1.22646       -0.80430
H         -1.66381       -0.60455        0.87044
