14
NITROBENZENE.gamout	Energy:    -436.2221113
N          1.65679        0.00004       -0.00014
O          2.22629       -1.08261        0.00295
O          2.22616        1.08277       -0.00307
C          0.18324       -0.00016       -0.00050
C         -0.49299       -1.22073       -0.00124
C         -1.88743       -1.21257       -0.00101
C         -2.58232        0.00016       -0.00050
C         -1.88731        1.21267        0.00091
C         -0.49302        1.22037        0.00260
H          0.07439       -2.14840       -0.00172
H         -2.43470       -2.15614       -0.00164
H         -3.67227        0.00020       -0.00090
H         -2.43436        2.15633        0.00146
H          0.07445        2.14791        0.00324
