28
NON-1.gamout	Energy:    -503.0721474
O         -5.00861        4.02473        0.00491
O         -5.24211        1.77321       -0.00091
C         -0.36648       -0.21285       -0.00145
C          1.16525       -0.27004       -0.00114
C         -0.93435        1.21199       -0.00143
C          1.74802       -1.68824       -0.00079
C         -2.46651        1.28362        0.00008
C          3.27946       -1.72695        0.00063
C         -3.02064        2.70893        0.00048
C          3.86287       -3.14222        0.00149
C         -4.58406        2.84258        0.00186
H         -0.74854       -0.75900        0.87937
H         -0.74847       -0.75867       -0.88248
H          1.54641        0.27675       -0.88208
H          1.54616        0.27701        0.87973
H         -0.54367        1.75341       -0.88258
H         -0.54265        1.75288        0.87978
H          1.37265       -2.23766       -0.88236
H          1.37105       -2.23770        0.88006
H         -2.86524        0.74458       -0.87481
H         -2.86444        0.74475        0.87539
H          3.65332       -1.17632       -0.87958
H          3.65158       -1.17588        0.88130
H         -2.65084        3.26630       -0.87887
H         -2.64875        3.26698        0.87830
H          4.96360       -3.12707        0.00245
H          3.53678       -3.70740        0.88909
H          3.53831       -3.70781       -0.88641
