14
O-CHLORONITROBENZENE.gamout	Energy:    -895.6212283
O          6.69435        4.07413       -0.74143
N          7.16065        2.97216       -0.99990
O          8.24074        2.77743       -1.53109
C          6.32493        1.80191       -0.67106
C          6.86303        0.56065       -0.28800
C          4.94027        1.97750       -0.76707
Cl         8.56593        0.27607       -0.05759
C          5.98602       -0.49631       -0.01689
C          4.07928        0.91415       -0.51374
C          4.60716       -0.32553       -0.13901
H          4.56469        2.96037       -1.04733
H          6.40146       -1.45367        0.29526
H          3.00183        1.05380       -0.60500
H          3.94397       -1.16667        0.06837
