15
O-CHLOROTOLUENE.gamout	Energy:    -730.6169084
C          7.24951        3.03562       -0.97419
C          6.34060        1.87346       -0.66936
C          6.83416        0.57999       -0.42525
C          4.94622        2.03640       -0.61571
Cl         8.57391        0.28756       -0.47442
C          5.99515       -0.49923       -0.14227
C          4.08768        0.97103       -0.33457
C          4.61330       -0.30138       -0.09687
H          7.95879        3.21358       -0.15181
H          7.84976        2.84682       -1.87710
H          6.66630        3.95150       -1.13207
H          4.53108        3.02953       -0.80044
H          6.42605       -1.48375        0.03994
H          3.00938        1.13630       -0.30148
H          3.95446       -1.14295        0.12406
