14
O-CHLOROANILINE.gamout	Energy:    -746.6514074
C          6.32200        1.87929       -0.67463
C          6.85568        0.63341       -0.35529
C          4.93640        2.07133       -0.71798
C          4.09237        0.99490       -0.43807
C          4.63201       -0.25029       -0.12029
C          6.02470       -0.47022       -0.06769
Cl         3.54418       -1.59909        0.22049
N          6.55617       -1.69115        0.29332
H          6.99672        2.70976       -0.88960
H          7.93849        0.49440       -0.31869
H          4.51468        3.04568       -0.96637
H          3.00908        1.11264       -0.46597
H          5.94599       -2.49664        0.28841
H          7.52394       -1.87357        0.07190
