24
O-CYMENE.gamout	Energy:    -388.9791111
C          1.04062        2.63651        3.49029
C          1.72731        2.08757        2.22635
C          1.09461        0.75608        1.77967
C          3.23810        1.96084        2.40901
C          4.15506        2.68171        1.60794
C          3.74087        1.10033        3.39932
C          3.69484        3.62847        0.52154
C          5.53098        2.51099        1.83155
C          5.11087        0.94149        3.61092
C          6.01474        1.65294        2.82014
H          1.15315        1.94602        4.33890
H          1.46878        3.60421        3.78790
H         -0.03659        2.77739        3.31518
H          1.54187        2.81266        1.42381
H          1.55960        0.38634        0.85492
H          1.21479       -0.02130        2.54841
H          0.01697        0.88224        1.59628
H          3.04395        0.53789        4.02315
H          4.55457        4.08585        0.01532
H          3.09299        3.11541       -0.24439
H          3.07567        4.44419        0.92629
H          6.23924        3.06701        1.21335
H          5.46879        0.26487        4.38909
H          7.09012        1.54231        2.96985
