12
O-DICHLOROBENZENE.gamout	Energy:   -1150.7618992
C          1.27669       -1.39603        0.00023
C          1.27669        1.39600       -0.00037
C          2.48505       -0.69911        0.00010
C          2.48505        0.69908        0.00010
C          0.06264       -0.70181        0.00009
C          0.06265        0.70179       -0.00017
Cl        -1.42904       -1.61054       -0.00006
Cl        -1.42902        1.61054        0.00007
H          1.26294       -2.48567       -0.00298
H          1.26295        2.48565       -0.00036
H          3.42591       -1.25117        0.00027
H          3.42590        1.25116        0.00031
