30
O-DIISOPROPYLBENZENE.gamout	Energy:    -467.4908744
C          6.38020        1.82966       -0.65400
C          6.88802        0.57577       -0.31904
C          4.99957        2.08927       -0.73007
C          4.56534        3.50605       -1.11016
C          4.09684        1.03180       -0.45476
C          2.56840        1.14048       -0.48892
C          4.63056       -0.22724       -0.11876
C          6.00170       -0.46696       -0.04768
C          1.98364        2.06936        0.59293
C          1.98968        1.42668       -1.88810
C          5.03428        4.54721       -0.07694
C          5.02491        3.88183       -2.53119
H          7.08416        2.63607       -0.86493
H          7.96668        0.41740       -0.27130
H          3.47307        3.53901       -1.11399
H          2.21243        0.13195       -0.22880
H          3.94008       -1.04573        0.09452
H          6.37117       -1.45898        0.21731
H          0.88675        1.98349        0.61126
H          2.36045        1.79443        1.58772
H          2.22660        3.12645        0.42401
H          0.89362        1.33147       -1.86922
H          2.37831        0.70987       -2.62451
H          2.22326        2.43673       -2.24881
H          4.66011        5.54741       -0.34114
H          4.66933        4.29954        0.92936
H          6.13108        4.60477       -0.02935
H          4.65685        4.88195       -2.80477
H          4.64925        3.16391       -3.27317
H          6.12135        3.89825       -2.60842
