12
O-DIFLUOROBENZENE.gamout	Energy:    -430.2085159
C          6.33371        1.86651       -0.67247
C          6.87596        0.62035       -0.33959
C          4.94715        2.04119       -0.72118
C          4.09144        0.97124       -0.43740
C          4.63536       -0.26511       -0.10720
C          6.02109       -0.43969       -0.05852
F          3.83427       -1.30654        0.16887
F          6.51715       -1.64511        0.26349
H          7.00048        2.70103       -0.89385
H          7.95323        0.45452       -0.29376
H          4.52486        3.01294       -0.98075
H          3.00618        1.07822       -0.46736
