19
O-ETHYLPHENOL.gamout	Energy:    -385.6058187
C          7.04712        4.14756       -0.61279
C          6.88297        2.99315       -1.61619
C          6.08805        1.82639       -1.07493
C          6.67517        0.90500       -0.18436
C          4.74515        1.62520       -1.41957
O          7.98988        1.10400        0.14498
C          5.94092       -0.16782        0.33321
C          3.99820        0.55937       -0.90767
C          4.60181       -0.34048       -0.02725
H          7.62509        4.97015       -1.05959
H          6.06754        4.54365       -0.30688
H          7.57577        3.81046        0.28921
H          7.87990        2.64221       -1.92356
H          6.38311        3.36728       -2.52221
H          4.27602        2.32654       -2.11354
H          8.29547        0.41097        0.74074
H          6.42050       -0.87077        1.02010
H          2.95440        0.43197       -1.19824
H          4.03684       -1.18011        0.38101
