21
O-ETHYLTOLUENE.gamout	Energy:    -349.7204022
C          1.07978        2.90113        2.02394
C          2.04011        2.26794        1.00282
C          3.47101        2.75534        1.13398
C          4.37571        2.21465        2.07608
C          3.90469        3.80488        0.30464
C          4.01612        1.07875        3.01000
C          5.67446        2.74783        2.14838
C          5.19538        4.32601        0.38975
C          6.08933        3.79132        1.32170
H          0.04726        2.56047        1.85329
H          1.35840        2.63834        3.05450
H          1.09409        3.99783        1.94443
H          1.99606        1.17211        1.09042
H          1.68267        2.49972       -0.01200
H          3.20679        4.21758       -0.42772
H          4.67403        0.21210        2.83975
H          4.14921        1.37952        4.06050
H          2.98375        0.73562        2.89379
H          6.37697        2.32891        2.87344
H          5.50276        5.14122       -0.26784
H          7.10464        4.18364        1.40379
