19
O-FLUOROPHENETOLE.gamout	Energy:    -484.7248147
C          6.40817        4.21278       -1.29929
O          6.97427        2.94870       -0.96615
C          6.15735        1.90709       -0.68713
C          7.54619        5.18203       -1.55321
C          6.77944        0.68578       -0.35977
C          4.75593        1.94525       -0.69787
F          8.12582        0.63724       -0.34579
C          6.05096       -0.45265       -0.05454
C          4.01270        0.79775       -0.39005
C          4.65042       -0.39932       -0.06884
H          5.77314        4.10763       -2.19592
H          5.77054        4.56194       -0.46910
H          7.14435        6.17119       -1.81369
H          8.17505        5.28323       -0.65806
H          8.17537        4.82899       -2.38161
H          4.23631        2.86929       -0.94639
H          6.58966       -1.36873        0.19129
H          2.92288        0.85182       -0.40476
H          4.06999       -1.29126        0.17044
