13
O-FLUOROPHENOL.gamout	Energy:    -406.2171041
F          7.14701        2.85239       -0.93386
C          6.31371        1.83007       -0.66254
C          6.86735        0.58409       -0.32982
C          4.94049        2.02680       -0.71716
O          8.22210        0.47842       -0.29972
C          5.99421       -0.47345       -0.04956
C          4.07812        0.96116       -0.43478
C          4.60901       -0.28687       -0.10153
H          4.56383        3.01569       -0.98132
H          8.48704       -0.41699       -0.06087
H          6.40797       -1.45109        0.21135
H          2.99872        1.11039       -0.47632
H          3.94673       -1.12479        0.12055
