19
O-METHYLSTYRENE.gamout	Energy:    -348.4952654
C          0.89482        3.08092        0.79606
C          2.05556        3.75963        0.78735
C          3.45840        3.30025        0.77630
C          3.91285        1.98545        1.07785
C          4.42264        4.27965        0.44930
C          2.98739        0.86335        1.47722
C          5.28996        1.72266        1.01940
C          5.78444        3.99537        0.38859
C          6.22359        2.70139        0.67440
H          0.81792        1.99705        0.79439
H         -0.04749        3.63032        0.78146
H          1.96942        4.85116        0.75524
H          4.07954        5.29321        0.23104
H          2.38769        0.50515        0.62497
H          3.56275        0.00887        1.85588
H          2.28368        1.17745        2.26217
H          5.63798        0.71534        1.25763
H          6.49609        4.77974        0.12568
H          7.28614        2.45420        0.63943
