19
O-METHOXYBENZOIC_ACID.gamout	Energy:    -534.6888420
C          6.07641        1.84377       -0.74456
C          6.75067        0.63592       -0.57534
C          4.68896        1.92557       -0.55760
O          4.09653        3.15156       -0.66417
C          3.96413        0.76794       -0.18798
C          2.49147        0.70264        0.05342
C          4.66954       -0.43791       -0.00658
C          6.04400       -0.51379       -0.20356
O          1.79196        1.78466       -0.34771
O          1.93765       -0.25521        0.54957
C          3.72660        3.57729       -1.97116
H          6.61440        2.75576       -1.00563
H          7.83132        0.59419       -0.72313
H          4.09919       -1.31594        0.29496
H          6.56476       -1.46133       -0.06147
H          0.86222        1.60053       -0.14102
H          3.32803        4.59289       -1.86816
H          4.60124        3.59206       -2.64166
H          2.95005        2.92026       -2.39042
