16
O-NITROANILINE.gamout	Energy:    -491.5244641
C          6.30045        1.83297       -0.67438
C          6.88334        0.56225       -0.38658
C          4.90315        2.00752       -0.68547
N          7.11536        2.99521       -0.96303
C          5.97833       -0.50053       -0.11716
N          8.21828        0.32603       -0.35645
C          4.05351        0.94990       -0.41872
C          4.60851       -0.31350       -0.13324
O          6.56034        4.06369       -1.19048
O          8.34899        2.87057       -0.97053
H          8.56215       -0.59686       -0.14207
H          8.85697        1.08581       -0.55326
H          4.52146        3.00107       -0.91071
H          6.39476       -1.48517        0.10413
H          2.97340        1.09383       -0.43038
H          3.95382       -1.16092        0.07859
