16
O-PHENYLENEDIAMINE.gamout	Energy:    -342.5317585
N          7.15936        2.94105       -0.99819
C          6.34062        1.84744       -0.66885
C          6.85911        0.58632       -0.35144
C          4.93536        2.02502       -0.71590
C          6.01436       -0.49012       -0.06240
C          4.63007       -0.30717       -0.07853
C          4.10010        0.94424       -0.40901
N          4.43800        3.30434       -1.01784
H          6.85110        3.82236       -0.59653
H          8.14625        2.79309       -0.82464
H          7.94347        0.45264       -0.32214
H          6.44084       -1.46336        0.18537
H          3.95959       -1.13614        0.15329
H          3.01694        1.08698       -0.44040
H          4.92547        3.76804       -1.77970
H          3.43545        3.34253       -1.15724
