21
O-PHENETIDINE.gamout	Energy:    -440.8848235
C          6.37179        1.87304       -0.68957
C          6.85350        0.63008       -0.26691
C          4.99908        2.10165       -0.80095
C          4.07283        1.09205       -0.48629
N          2.69815        1.29276       -0.55475
C          4.56988       -0.15559       -0.04643
O          3.66244       -1.15965        0.22708
C          5.94225       -0.38261        0.04997
C          3.27502       -1.28204        1.60181
C          2.26751       -2.40790        1.72514
H          7.07023        2.67302       -0.94140
H          7.92603        0.44818       -0.18843
H          4.63135        3.07421       -1.13615
H          2.37935        2.03223       -1.16621
H          2.14987        0.44410       -0.62635
H          6.28528       -1.36895        0.36743
H          4.16962       -1.48486        2.21475
H          2.84680       -0.32579        1.94881
H          1.96724       -2.52660        2.77637
H          1.36823       -2.19718        1.12960
H          2.70119       -3.35596        1.37775
