18
O-TOLUIC_ACID.gamout	Energy:    -459.5699152
O          0.92875        1.94913        1.67795
C          1.63551        2.95049        1.10291
O          1.06900        3.88306        0.57303
C          3.12099        2.80601        1.17768
C          3.81803        1.72700        1.78540
C          3.84050        3.85758        0.57741
C          3.15986        0.54575        2.45926
C          5.22232        1.76754        1.75346
C          5.23099        3.87008        0.56227
C          5.92587        2.81378        1.15648
H         -0.00778        2.17147        1.55586
H          3.27115        4.66714        0.12182
H          2.50990       -0.00631        1.76703
H          3.92472       -0.14233        2.84082
H          2.52482        0.85723        3.29958
H          5.77739        0.94852        2.21406
H          5.76700        4.69534        0.09142
H          7.01740        2.80117        1.15690
