18
O-XYLENE.gamout	Energy:    -310.4647718
C          2.57726        0.53470        1.08966
C          3.00793        1.97906        1.15089
C          2.05042        3.01884        1.13663
C          4.36747        2.31042        1.22238
C          0.57594        2.70900        1.05932
C          2.49076        4.34717        1.19528
C          4.79342        3.63908        1.27971
C          3.84903        4.66416        1.26628
H          1.92357        0.26909        1.93675
H          3.44375       -0.13816        1.11119
H          2.00536        0.31918        0.17219
H          5.10885        1.50912        1.23315
H          0.32689        2.14367        0.14650
H         -0.02171        3.62939        1.05821
H          0.24469        2.09205        1.91044
H          1.75225        5.15093        1.18465
H          5.85852        3.87186        1.33444
H          4.16697        5.70740        1.31100
