18
O-XYLENE.gamout	Energy:    -310.4647166
C          2.44592        0.69468        1.26211
C          2.94244        2.11986        1.24525
C          2.03719        3.19991        1.11537
C          4.31332        2.39371        1.35676
C          0.55403        2.95172        0.98648
C          2.53923        4.50899        1.10653
C          4.80120        3.70307        1.34208
C          3.90805        4.76819        1.21735
H          1.71409        0.52992        2.06886
H          3.27374       -0.01090        1.40750
H          1.93940        0.43103        0.31949
H          5.01308        1.56064        1.45690
H          0.32330        2.31743        0.11528
H          0.00162        3.89278        0.87160
H          0.15182        2.42985        1.87016
H          1.84045        5.34284        1.00628
H          5.87344        3.88855        1.42876
H          4.27291        5.79689        1.20488
