25
OCT-1.gamout	Energy:    -463.8134427
O         -4.84128        3.16068       -0.00195
O         -2.76378        4.05782        0.00541
C          0.62834        0.07227        0.00041
C         -0.90358        0.14497        0.00062
C          1.19784       -1.35174        0.00044
C         -1.45900        1.57524       -0.00084
C          2.72945       -1.40886       -0.00050
C         -2.98590        1.65880       -0.00126
C          3.29718       -2.83099        0.00011
C         -3.58614        3.10864        0.00090
H          1.01541        0.61592        0.88064
H          1.01521        0.61527       -0.88044
H         -1.28795       -0.40068       -0.88081
H         -1.28809       -0.40017        0.88208
H          0.81660       -1.89916       -0.88037
H          0.81784       -1.89871        0.88208
H         -1.07479        2.12553       -0.87529
H         -1.07511        2.12596        0.87364
H          3.10853       -0.86273       -0.88135
H          3.10945       -0.86156        0.87921
H         -3.39986        1.13229        0.87735
H         -3.39981        1.13452       -0.88092
H          4.39841       -2.82771       -0.00069
H          2.96486       -3.39347       -0.88712
H          2.96617       -3.39222        0.88865
