12
OCTAFLUORO-2-BUTENE.gamout	Energy:    -950.0962924
C          1.31874        1.68463        0.01846
F          1.52739        2.98675        0.21765
F          2.49681        1.10319       -0.26044
F          0.86104        1.14762        1.16022
C          0.33285        1.42227       -1.10192
F          0.08418        0.12042       -1.23151
C         -0.27477        2.28102       -1.93220
F         -1.10588        1.78592       -2.84465
C         -0.15467        3.80609       -1.99287
F         -0.59038        4.38355       -0.86322
F          1.11199        4.19586       -2.19892
F         -0.89740        4.26378       -3.00339
