11
OCTAFLUOROPROPANE.gamout	Energy:    -912.0783274
C         -0.96494       -0.97206        1.70728
C          0.33942       -0.53292        0.96602
C          1.68343       -1.03322        1.58916
F         -1.06638       -2.30185        1.73124
F         -2.01610       -0.47008        1.05835
F         -0.97298       -0.51277        2.96006
F          0.27231       -0.99445       -0.29675
F          0.36971        0.81279        0.94418
F          2.69444       -0.57907        0.84783
F          1.82151       -0.57709        2.83476
F          1.72557       -2.36656        1.60597
