53
OLEATE-1.gamout	Energy:    -855.1748559
O          6.90642       -0.62971       -0.38586
O          5.69598       -0.76231        1.52207
C         -2.95033       -1.49696       -0.33091
C         -4.13998       -1.25894        0.60303
C         -1.71754       -2.06883        0.37119
C         -0.20483        1.77288       -0.37298
C          0.97515        1.23810        0.43713
C         -5.39604       -0.73280       -0.10089
C         -1.47556        1.96263        0.45503
C          2.22652        0.97225       -0.40189
C         -0.55020       -2.35413       -0.57308
C         -5.26440        0.68201       -0.70521
C         -2.65980        2.51936       -0.35652
C          3.41288        0.42975        0.39980
C          0.70333       -2.84250        0.15010
C         -4.99910        1.74996        0.32040
C         -3.92688        2.54672        0.44833
C          4.64584        0.12733       -0.45147
C          1.86781       -3.12276       -0.79576
C          5.87183       -0.48031        0.31070
H         -2.66421       -0.55935       -0.83061
H         -3.26288       -2.18182       -1.13823
H         -4.38940       -2.20919        1.10292
H         -3.84987       -0.56189        1.40530
H         -1.38733       -1.37249        1.15850
H         -1.98944       -2.99729        0.89903
H          0.06952        2.73018       -0.84370
H         -0.42398        1.08744       -1.20930
H          1.21325        1.95324        1.24345
H          0.67091        0.30963        0.94799
H         -6.23927       -0.73339        0.61133
H         -5.67250       -1.43247       -0.90632
H         -1.26330        2.63559        1.30359
H         -1.76518        1.00015        0.90182
H          2.51647        1.90824       -0.91118
H          1.96914        0.26740       -1.21210
H         -0.86735       -3.10177       -1.32251
H         -0.29842       -1.44596       -1.14466
H         -6.21652        0.91778       -1.21330
H         -4.49470        0.69197       -1.48881
H         -2.79038        1.92334       -1.27173
H         -2.40686        3.53980       -0.69234
H          3.12160       -0.48501        0.93872
H          3.68233        1.14846        1.19179
H          1.00673       -2.08342        0.88792
H          0.45601       -3.74527        0.73257
H         -5.79489        1.87339        1.06015
H         -3.94067        3.27395        1.26986
H          4.38658       -0.58012       -1.25927
H          4.99252        1.04011       -0.96534
H          2.15240       -2.21024       -1.33757
H          2.75621       -3.47295       -0.25386
H          1.59590       -3.88369       -1.54490
