37
OMIM+1.gamout	Energy:    -579.6520792
C         -0.76712       -0.22910        0.53574
C          0.15493        0.57802       -0.37853
N          1.27027        1.20210        0.36126
H         -0.39028        1.38642       -0.88302
H          0.59831       -0.05651       -1.15658
C          2.51168        0.71727        0.46570
C          2.41008        2.54609        1.69446
C          1.18287        2.34573        1.12648
C          4.63579        1.35157        1.62249
H          0.26710        2.92104        1.20459
N          3.22430        1.51671        1.26958
H          2.88348       -0.17779       -0.02348
H          2.76742        3.32784        2.35581
H          4.98852        0.38199        1.25664
H          4.74318        1.38763        2.71298
H          5.22701        2.15432        1.16417
C         -1.91619       -0.88537       -0.23726
C         -2.86223       -1.66939        0.67699
C         -4.00633       -2.35140       -0.08018
C         -4.90957       -3.21274        0.80801
C         -6.01858       -3.92914        0.03106
C         -6.90056       -4.81887        0.90745
H         -1.18012        0.43404        1.31269
H         -0.17068       -0.99539        1.05700
H         -1.51467       -1.56368       -1.00942
H         -2.48433       -0.10676       -0.77308
H         -3.26971       -0.98718        1.44220
H         -2.28497       -2.43460        1.22327
H         -3.58063       -2.98583       -0.87678
H         -4.61671       -1.58831       -0.59315
H         -4.29198       -3.96242        1.33267
H         -5.36215       -2.58552        1.59585
H         -5.56209       -4.53766       -0.76793
H         -6.64437       -3.17848       -0.48035
H         -7.68315       -5.31369        0.31495
H         -6.30894       -5.60572        1.40062
H         -7.39945       -4.23503        1.69604
