42
OMPYR+1.gamout	Energy:    -566.0015301
N          0.06757       -0.08459       -0.28309
C         -0.60233        1.08863       -1.00922
C          1.25415        0.52756        0.47736
C          1.36177        1.97251       -0.00207
H          2.14346       -0.07990        0.29442
H          1.01637        0.47841        1.54451
C         -0.08958        2.34241       -0.31873
H         -1.68618        0.94405       -0.98386
H         -0.26876        1.05589       -2.05214
H         -0.65520        2.55627        0.60033
H         -0.17866        3.21806       -0.97116
H          1.98627        2.04254       -0.90440
H          1.81616        2.61155        0.76377
C         -0.89866       -0.70292        0.67586
H         -1.33250        0.08481        1.29831
H         -0.37100       -1.41872        1.30973
H         -1.68971       -1.21000        0.11393
C          0.53122       -1.10729       -1.30679
C          1.07977       -2.41738       -0.75236
H          1.29032       -0.59579       -1.91068
H         -0.33453       -1.29706       -1.95353
C          1.62652       -3.28425       -1.89765
H          0.29483       -2.96919       -0.21894
H          1.89360       -2.23201       -0.03414
C          2.32392       -4.56538       -1.42454
H          0.80396       -3.54953       -2.58199
H          2.34024       -2.68480       -2.48430
C          1.40474       -5.61081       -0.78051
H          3.13799       -4.30189       -0.72727
H          2.81542       -5.02045       -2.29702
C          2.13537       -6.91627       -0.43519
H          0.57841       -5.84006       -1.47625
H          0.93957       -5.19826        0.12979
C          1.23487       -8.04399        0.08351
H          2.92178       -6.70626        0.31083
H          2.65954       -7.27102       -1.33711
C          0.56648       -7.77312        1.43386
H         -0.17935       -6.96617        1.37987
H          1.31264       -7.49488        2.19448
H          0.04177       -8.66841        1.79508
H          1.84601       -8.95520        0.16916
H          0.46446       -8.26913       -0.67307
