8
OXALIC_ACID.gamout	Energy:    -377.9050769
C          1.89273        2.18194        0.09794
C          3.08410        1.19742        0.14098
O          4.24118        1.85826        0.05713
O          2.96988        0.00561        0.23656
O          0.73571        1.52126        0.18393
O          2.00691        3.37359        0.00046
H          4.96341        1.21000        0.08731
H          0.01347        2.16950        0.15342
