8
OXAZOLE.gamout	Energy:    -245.7718165
C          1.03041        2.03009        0.04911
C          0.85473        0.68296        0.13033
N          2.39067        2.30405        0.03192
O          2.09344        0.10663        0.16453
C          2.95964        1.14542        0.10147
H          0.28233        2.81636        0.00215
H         -0.00132        0.01921        0.17074
H          4.01998        0.90862        0.11525
