14
P-BROMOBENZALDEHYDE.gamout	Energy:   -2918.2717543
Br         7.85533        4.05198       -1.27109
C          6.62548        2.65085       -0.86329
C          7.11688        1.41020       -0.44741
C          6.20927        0.39247       -0.15211
C          5.24945        2.88785       -0.98774
C          4.82743        0.60658       -0.26922
C          4.35645        1.86310       -0.68960
C          3.88049       -0.48848        0.04956
O          2.67391       -0.40060       -0.02112
H          8.18961        1.24423       -0.35669
H          6.57894       -0.58261        0.17393
H          4.88770        3.86237       -1.31421
H          3.28007        2.01797       -0.77743
H          4.36401       -1.44319        0.37324
