15
P-BROMOTOLUENE.gamout	Energy:   -2844.3387410
Br        -3.26283        0.00600       -0.00283
C          1.46396       -0.00780        0.00168
C          0.73694       -1.20382        0.07432
C          0.74147        1.19474       -0.07244
C          2.97368        0.00018        0.00208
C         -0.66205       -1.21207        0.07386
C         -0.65436        1.21052       -0.07444
C         -1.34819       -0.00024       -0.00084
H          1.26928       -2.15577        0.13286
H          1.27976        2.14385       -0.13012
H          3.36823        0.57374        0.85515
H          3.38025       -1.01761        0.06408
H          3.36907        0.46539       -0.91436
H         -1.20676       -2.15427        0.13097
H         -1.19466        2.15528       -0.13252
