16
P-BROMOANISOLE.gamout	Energy:   -2919.4636505
Br        -2.42027       -0.08504       -0.00020
C         -0.50830        0.04602        0.00003
C          0.09989        1.30702        0.00022
C          1.48781        1.40106        0.00027
C          2.28186        0.24150       -0.00005
C          1.66384       -1.01748       -0.00032
C          0.26660       -1.11094        0.00184
O          3.62671        0.43651       -0.00017
C          4.48963       -0.68552       -0.00045
H         -0.51001        2.20986        0.00034
H          1.98108        2.37366        0.00050
H          2.25118       -1.93403       -0.00054
H         -0.20863       -2.09148        0.00148
H          4.33940       -1.30483        0.89905
H          4.33932       -1.30446       -0.90021
H          5.50957       -0.28806       -0.00044
