15
P-CHLOROBENZOIC_ACID.gamout	Energy:    -879.7253388
C          0.84241        1.86386       -0.46657
C          1.37219        0.61803       -0.14025
C         -0.54679        2.01815       -0.52242
C         -1.40705        0.94885       -0.25768
Cl        -1.22181        3.58288       -0.93263
C         -0.86652       -0.29423        0.06800
C          0.52554       -0.46907        0.12922
C          1.14383       -1.77841        0.47305
O          0.23400       -2.75155        0.71225
O          2.33522       -1.98272        0.54013
H          1.49515        2.71037       -0.67652
H          2.45077        0.46914       -0.08950
H         -2.48597        1.09085       -0.30681
H         -1.52643       -1.13471        0.27633
H          0.72593       -3.55926        0.92575
