15
P-CHLOROTOLUENE.gamout	Energy:    -730.6164381
C         -2.91509        1.19306        0.04058
C         -1.52363        1.32893        0.04062
C         -0.72798        0.18459       -0.00021
C         -1.30791       -1.08606       -0.04092
C         -3.52915       -0.06664        0.00035
C         -2.69840       -1.19929       -0.04039
C         -5.03178       -0.21398        0.00040
H         -5.38028       -0.73799       -0.90309
H         -5.52957        0.76379        0.03517
H         -5.37402       -0.79815        0.86869
H         -3.53249        2.09331        0.07272
H         -1.06236        2.31588        0.07205
H         -3.14662       -2.19517       -0.07221
H         -0.67783       -1.97483       -0.07272
Cl         1.02381        0.34216       -0.00079
