15
P-CHLOROBENZOTRIFLUORIDE.gamout	Energy:   -1028.0422229
F          6.77056        4.18166       -0.51991
C          7.24370        3.00681       -0.98146
F          7.40204        3.15146       -2.31932
F          8.47572        2.83464       -0.46295
C          6.32603        1.85522       -0.65046
C          6.85436        0.57153       -0.46927
C          4.94442        2.06157       -0.56181
C          6.00857       -0.50377       -0.19835
C          4.09155        0.99118       -0.29189
C          4.63127       -0.28511       -0.11223
Cl         3.56534       -1.63175        0.23164
H          7.92992        0.40823       -0.53159
H          4.53023        3.06058       -0.69577
H          6.41486       -1.50393       -0.05266
H          3.01592        1.14658       -0.21750
