20
P-COUMARIC_ACID.gamout	Energy:    -572.7578275
C          0.82119       -0.46004       -0.90883
C          0.23645       -0.36369        0.30544
C         -1.17495       -0.55255        0.63475
C          2.25703       -0.25240       -1.14496
C         -1.59024       -0.40602        1.97263
C         -2.16185       -0.87812       -0.32348
O          2.97046        0.04972       -0.02771
O          2.78962       -0.33714       -2.23307
C         -2.92202       -0.57360        2.34658
C         -3.49131       -1.04790        0.03513
C         -3.87975       -0.89600        1.37638
O         -5.19480       -1.07347        1.67128
H          0.26395       -0.70192       -1.81420
H          0.88465       -0.11538        1.14964
H         -0.85015       -0.15470        2.73484
H         -1.88226       -1.00074       -1.36982
H          3.89198        0.16260       -0.30440
H         -3.21793       -0.45400        3.39160
H         -4.24890       -1.29890       -0.70745
H         -5.35966       -0.94826        2.61347
