24
P-CYMENE.gamout	Energy:    -388.9818395
C          1.27100        0.31827       -3.56132
C          0.99158        1.40739       -2.71789
C          1.62854       -0.92570       -3.04292
C          1.72395       -1.13732       -1.65592
C          1.44542       -0.05149       -0.81717
C          2.12172       -2.49159       -1.08315
C          1.08633        1.19740       -1.33671
C          0.60589        2.74993       -3.29125
C          1.08247       -3.58020       -1.40490
C          3.53308       -2.91195       -1.52996
H          1.20788        0.44871       -4.64451
H          1.84112       -1.74407       -3.73360
H          1.51125       -0.18015        0.26570
H          2.14722       -2.37405        0.01234
H          0.87843        2.02323       -0.65244
H         -0.32247        2.68181       -3.88030
H          1.38813        3.13803       -3.96235
H          0.44582        3.49330       -2.49896
H          0.98637       -3.73030       -2.49069
H          0.09151       -3.30948       -1.01449
H          1.37719       -4.54244       -0.95969
H          3.57209       -3.09036       -2.61515
H          3.83839       -3.84365       -1.03027
H          4.27249       -2.13487       -1.29083
