12
P-DIFLUOROBENZENE.gamout	Energy:    -430.2134472
F          7.13871        2.87599       -0.94025
C          6.31670        1.83988       -0.66542
C          6.87486        0.60760       -0.33626
C          4.93991        2.03929       -0.72070
C          6.02499       -0.46498       -0.05180
C          4.09005        0.96670       -0.43625
C          4.64820       -0.26558       -0.10708
F          3.82619       -1.30170        0.16776
H          7.95892        0.49563       -0.30488
H          4.54547        3.02130       -0.98303
H          6.41941       -1.44700        0.21053
H          3.00598        1.07865       -0.46761
