12
P-DICHLOROBENZENE.gamout	Energy:   -1150.7658620
C         -0.69818        1.21469        0.00002
C          0.69820        1.21467        0.00020
C          0.69818       -1.21468        0.00062
C         -0.69819       -1.21467        0.00003
C         -1.38744        0.00000       -0.00013
C          1.38744       -0.00001        0.00029
Cl         3.14230        0.00000       -0.00027
Cl        -3.14230       -0.00001       -0.00024
H         -1.24676        2.15613        0.00317
H          1.24681        2.15611       -0.00004
H          1.24675       -2.15613        0.00071
H         -1.24677       -2.15612       -0.00005
