24
P-DIETHYLBENZENE.gamout	Energy:    -388.9816206
C         -0.11283       -1.12377        0.77656
C         -0.61385       -0.78559       -0.48952
C         -1.04365        0.51297       -0.77377
C         -0.98396        1.52594        0.19535
C         -0.48297        1.18761        1.46172
C         -0.05309       -0.11059        1.74583
C          0.30530       -2.54207        1.10047
H         -0.67132       -1.55212       -1.26623
H         -1.43232        0.74386       -1.76864
C         -1.40190        2.94444       -0.12726
H         -0.42841        1.95400        2.23879
H          0.33554       -0.34226        2.74053
H         -1.80558        3.42219        0.77914
H         -2.22407        2.92607       -0.85995
C         -0.25154        3.80238       -0.68094
H          0.13334        3.38132       -1.62119
H          0.58479        3.84397        0.03208
H         -0.58754        4.83151       -0.87760
H          0.70652       -3.02069        0.19342
C         -0.84531       -3.39798        1.65691
H          1.12911       -2.52317        1.83127
H         -1.25346       -2.95333        2.57621
H         -1.66632       -3.47190        0.92894
H         -0.50089       -4.41637        1.89133
