30
P-DIISOPROPYLBENZENE.gamout	Energy:    -467.4987130
C          0.74485        5.69062        3.01782
C          1.90972        6.05087        2.07896
C          2.47112        7.44801        2.39721
C          2.99559        4.98393        2.08552
C          3.72687        4.68532        3.24838
C          3.30335        4.25841        0.92804
C          4.71842        3.70488        3.24913
C          4.29812        3.27493        0.92878
C          5.02623        2.97621        2.08700
C          6.10523        1.90231        2.08212
C          7.49599        2.47898        2.40100
C          5.75680        0.73445        3.02171
H          1.07709        5.64839        4.06608
H          0.31474        4.71174        2.76308
H         -0.05507        6.44353        2.95266
H          1.50640        6.08589        1.05390
H          1.67967        8.20915        2.32664
H          3.27468        7.72237        1.69956
H          2.88226        7.49019        3.41713
H          3.52047        5.22595        4.17403
H          2.75545        4.46427        0.00561
H          5.26067        3.50520        4.17532
H          4.51091        2.72870        0.00692
H          6.14524        1.49840        1.05748
H          8.26546        1.69551        2.33163
H          7.53274        2.89128        3.42065
H          7.76255        3.28494        1.70309
H          6.51811       -0.05760        2.95789
H          4.78273        0.29384        2.76648
H          5.71019        1.06706        4.06966
