19
P-ETHYLPHENOL.gamout	Energy:    -385.6049328
C          1.03474        0.96828        1.09540
C          1.72212        2.09645        1.88263
C          3.23368        2.02794        1.83426
C          3.96260        2.72228        0.85846
C          3.95602        1.23672        2.74339
C          5.35559        2.63213        0.78457
C          5.34544        1.13441        2.68480
C          6.05197        1.83453        1.69968
O          7.41330        1.70738        1.68269
H         -0.06056        1.05530        1.15806
H          1.32106        0.99864        0.03375
H          1.32264       -0.01767        1.48924
H          1.38878        3.06868        1.48692
H          1.38713        2.05887        2.93152
H          3.43386        3.35201        0.13928
H          3.41844        0.68896        3.52110
H          5.90054        3.18761        0.01643
H          5.89882        0.52174        3.39743
H          7.79474        2.23201        0.96978
