19
P-FLUOROPHENETOLE.gamout	Energy:    -484.7280679
C          6.34293        1.76514       -0.64399
C          6.77711        0.47327       -0.29797
C          4.98393        2.05590       -0.72563
C          4.05955        1.04658       -0.45915
F          2.73649        1.32671       -0.53853
C          4.46226       -0.23551       -0.11543
C          5.83010       -0.52723       -0.03330
O          8.12500        0.28823       -0.24552
C          8.64421       -0.99165        0.09383
C         10.15845       -0.90850        0.07173
H          7.09283        2.53055       -0.84633
H          4.63347        3.05344       -0.99295
H          3.71335       -1.00209        0.08694
H          6.13863       -1.53549        0.23701
H          8.28293       -1.28453        1.09516
H          8.28175       -1.74193       -0.63039
H         10.59107       -1.88450        0.33265
H         10.51679       -0.62267       -0.92672
H         10.51514       -0.16258        0.79529
