16
P-HYDROXYBENZOIC_ACID.gamout	Energy:    -495.4589980
O          7.40804        4.05021       -0.68904
C          7.82169        2.75898       -0.73686
O          8.98414        2.47079       -0.92472
C          6.72349        1.78313       -0.53933
C          7.02929        0.41029       -0.56582
C          5.39346        2.18221       -0.32769
C          6.03684       -0.54441       -0.38581
C          4.71083       -0.13468       -0.17501
O          3.77566       -1.10484       -0.00426
C          4.39185        1.23161       -0.14661
H          8.19131        4.60374       -0.82747
H          8.06374        0.10890       -0.73117
H          5.14543        3.24219       -0.30564
H          6.26461       -1.61029       -0.40450
H          2.90060       -0.72267        0.13290
H          3.35879        1.54777        0.01781
