15
P-HYDROXY_BENZALDEHYDE.gamout	Energy:    -420.2839058
O         -0.01562        3.24533        0.14811
C          0.66869        2.24320        0.09935
C          2.14385        2.21973        0.14045
C          2.88333        3.41251        0.24272
C          2.83206        0.99522        0.07732
C          4.27149        3.38054        0.28105
C          4.22152        0.94958        0.11456
C          4.94509        2.14683        0.21692
O          6.29879        2.05775        0.25065
H          0.19008        1.23566        0.01676
H          2.34399        4.35954        0.29151
H          2.26321        0.06571       -0.00236
H          4.84359        4.30858        0.36085
H          4.76496        0.00590        0.06620
H          6.70359        2.93064        0.32146
