19
P-METHYLSTYRENE.gamout	Energy:    -348.5000942
C          0.94027        2.62293        0.89697
C          1.98060        1.77562        0.91310
C          3.41560        2.11073        0.90905
C          3.90056        3.43211        0.90314
C          4.36798        1.07283        0.91068
C          5.26883        3.69732        0.89896
C          5.73605        1.34176        0.90651
C          6.21625        2.66049        0.90073
C          7.69878        2.94348        0.89475
H          1.06311        3.70765        0.87904
H         -0.08375        2.24945        0.90173
H          1.76535        0.70199        0.93055
H          3.20002        4.26783        0.90114
H          4.02396        0.03603        0.91501
H          5.61058        4.73474        0.89468
H          6.44600        0.51114        0.90771
H          8.19292        2.49594        1.77140
H          8.18117        2.51785        0.00065
H          7.90256        4.02217        0.90640
