18
P-NITROANISOLE.gamout	Energy:    -550.6126975
C          6.40914        1.74039       -0.89731
C          6.89717        0.50656       -0.47001
C          5.02336        1.98348       -0.88780
C          6.00726       -0.47580       -0.03590
C          4.62472       -0.24556       -0.02080
N          6.52521       -1.76894        0.41206
C          4.13732        0.97989       -0.44577
O          4.45417        3.14173       -1.28167
C          5.26873        4.20998       -1.74146
O          5.71720       -2.60956        0.79028
O          7.73847       -1.94344        0.38575
H          7.11063        2.50100       -1.23348
H          7.96509        0.29646       -0.46918
H          3.95594       -1.03179        0.32423
H          3.06823        1.19184       -0.44696
H          4.58362        5.02320       -1.99925
H          5.95932        4.54816       -0.95296
H          5.84169        3.91640       -2.63520
