17
P-NITROTOLUENE.gamout	Energy:    -475.4856197
C          6.34760        1.84941       -0.63051
C          6.87217        0.60089       -0.30414
C          4.96135        1.99624       -0.70927
C          6.03510       -0.50088       -0.05348
C          4.64433       -0.31585       -0.14569
C          6.61476       -1.83931        0.32872
C          4.09907        0.92441       -0.47077
N          4.39803        3.30991       -1.05635
O          5.17899        4.23049       -1.26057
O          3.17966        3.41116       -1.12164
H          6.98928        2.70608       -0.82734
H          7.95489        0.47652       -0.24431
H          3.97754       -1.16009        0.03862
H          7.60853       -1.98658       -0.11537
H          6.72819       -1.91544        1.42267
H          5.96597       -2.66578        0.00804
H          3.02374        1.07370       -0.54562
