15
P-NITROPHENOL.gamout	Energy:    -511.3687603
C          6.37011        1.84857       -0.66744
C          6.89788        0.59067       -0.33166
C          4.99414        2.02961       -0.71801
C          4.14750        0.95221       -0.43229
C          4.66001       -0.30361       -0.09719
N          2.69680        1.14408       -0.48555
C          6.03858       -0.48376       -0.04698
O          8.24698        0.47230       -0.29797
O          2.27636        2.25598       -0.78270
O          1.98113        0.18235       -0.23000
H          7.05551        2.66758       -0.88443
H          4.56108        2.99427       -0.97562
H          3.97490       -1.12111        0.11917
H          6.45150       -1.46083        0.21375
H          8.51544       -0.42346       -0.05893
