21
P-PHENETIDINE.gamout	Energy:    -440.8848306
C          7.68084        5.27125       -0.94457
C          6.52338        4.30937       -0.74930
O          7.05554        2.99919       -0.63738
C          6.21048        1.94145       -0.44606
N          3.85793       -1.52075        0.20324
C          4.63018       -0.37848       -0.04796
C          6.03429       -0.46008       -0.12928
C          4.04088        0.88819       -0.16658
C          6.80927        0.67759       -0.32680
C          4.81577        2.03742       -0.36414
H          7.30470        6.29988       -1.03504
H          8.36933        5.22364       -0.08997
H          8.23943        5.02100       -1.85668
H          5.82548        4.35931       -1.60408
H          5.95451        4.56139        0.16336
H          2.88462       -1.46404       -0.06784
H          4.27345       -2.40278       -0.06808
H          6.52260       -1.43252       -0.03340
H          2.95475        0.98459       -0.10086
H          7.89574        0.60628       -0.39072
H          4.31472        3.00012       -0.45219
