16
P-PHENYLENEDIAMINE.gamout	Energy:    -342.5282520
C          6.34913        1.87506       -0.69668
C          6.86058        0.61336       -0.34971
C          4.95260        2.02541       -0.72869
N          7.20245        2.93012       -1.05912
C          6.01230       -0.45109       -0.04381
C          4.61576       -0.30076       -0.07581
C          4.10433        0.96094       -0.42279
N          3.76245       -1.35583        0.28662
H          7.94224        0.46070       -0.32210
H          4.52189        2.99178       -1.00185
H          6.81512        3.85932       -0.95249
H          8.14277        2.87612       -0.68804
H          6.44297       -1.41748        0.22936
H          3.02266        1.11357       -0.45035
H          2.82214       -1.30185       -0.08449
H          4.14981       -2.28503        0.17995
