12
P-QUINONE.gamout	Energy:    -380.9901937
O          1.02868       -0.06632       -0.50840
C          2.21027       -0.06162       -0.19967
C          2.96442       -1.32983       -0.00231
C          2.95499        1.21264       -0.00519
C          4.26525       -1.32454        0.33925
C          4.25583        1.21793        0.33636
C          5.00967       -0.05028        0.53491
O          6.19076       -0.04558        0.84557
H          2.39899       -2.25185       -0.15096
H          2.38277        2.13011       -0.15591
H          4.83767       -2.24200        0.48928
H          4.82146        2.13994        0.48435
