25
P-TERT-BUTYLPHENOL.gamout	Energy:    -464.1197271
C          7.61483        3.77192        0.31391
C          7.24620        3.02973       -0.99238
C          6.61699        4.04530       -1.96298
C          8.53317        2.47268       -1.64605
C          6.28639        1.86824       -0.67092
C          6.68911        0.83710        0.20013
C          4.99560        1.76848       -1.20863
C          5.85847       -0.23380        0.52003
C          4.14637        0.70006       -0.89915
C          4.57394       -0.30809       -0.03260
O          3.79306       -1.37696        0.30799
H          8.10624        3.10579        1.03554
H          6.71786        4.18609        0.79583
H          8.30497        4.60234        0.10116
H          6.35621        3.58121       -2.92460
H          5.70935        4.50113       -1.54274
H          7.32817        4.85646       -2.17059
H          8.29996        1.94530       -2.58194
H          9.05587        1.76784       -0.98568
H          9.22983        3.29237       -1.87806
H          7.68327        0.86306        0.64803
H          4.62040        2.53115       -1.88853
H          6.19072       -1.02182        1.19668
H          3.14621        0.65717       -1.33868
H          2.93580       -1.32457       -0.12940
