16
P-TOLUNITRILE.gamout	Energy:    -363.3353383
C          6.33678        1.86565       -0.62839
C          6.86317        0.61754       -0.30405
C          4.94351        2.03930       -0.71676
C          4.09591        0.94226       -0.47666
C          4.39338        3.32275       -1.05367
C          4.63885       -0.29922       -0.15350
C          6.02827       -0.48552       -0.05826
C          6.60769       -1.82523        0.32186
N          3.94887        4.35980       -1.32591
H          6.99793        2.71164       -0.81830
H          7.94630        0.49501       -0.24221
H          3.01553        1.07057       -0.54871
H          3.97063       -1.14361        0.02686
H          7.60739       -1.96610       -0.11104
H          6.70756       -1.91129        1.41643
H          5.96617       -2.65140       -0.01442
