18
P-TOLUIC_ACID.gamout	Energy:    -459.5756423
C          6.33455        1.84762       -0.67253
C          6.86972        0.60391       -0.33705
C          4.94315        2.02639       -0.71578
C          6.03969       -0.48823       -0.03861
C          4.10278        0.94120       -0.41647
C          4.32218        3.33014       -1.06572
C          4.64660       -0.29537       -0.08278
C          6.61725       -1.83939        0.30231
O          5.22838        4.30185       -1.33441
O          3.13000        3.54081       -1.11661
H          6.99337        2.68434       -0.89963
H          7.95379        0.47817       -0.30413
H          3.02335        1.08980       -0.44911
H          3.98232       -1.13017        0.15073
H          7.68200       -1.76937        0.56092
H          6.08607       -2.29754        1.14944
H          6.52518       -2.53088       -0.55106
H          4.72880        5.10415       -1.54951
