18
P-XYLENE.gamout	Energy:    -310.4647562
C          1.00512        0.85074        0.68249
C          1.80825        1.25330        1.89634
C          3.21170        1.23782        1.87367
C          1.18384        1.66705        3.08221
C          3.95836        1.62356        2.98854
C          1.93103        2.05293        4.19797
C          3.33341        2.04140        4.17400
C          4.13953        2.47654        5.37469
H          0.95439        1.67036       -0.05359
H         -0.02691        0.58822        0.95282
H          1.45370       -0.01441        0.17230
H          3.73016        0.91547        0.96724
H          0.09266        1.68571        3.13617
H          5.04964        1.59728        2.93807
H          1.41254        2.36748        5.10704
H          5.12658        1.99302        5.39365
H          3.62384        2.23373        6.31476
H          4.30922        3.56620        5.36754
