18
P-XYLENE.gamout	Energy:    -310.4649265
C          1.15696        0.93803        0.65092
C          1.70874        1.27781        2.01328
C          3.08298        1.18534        2.27145
C          0.87668        1.69372        3.06109
C          3.60533        1.49661        3.52762
C          1.39890        2.00496        4.31713
C          2.77296        1.91247        4.57489
C          3.32352        2.25233        5.93719
H          1.59466        1.58200       -0.12798
H          0.06655        1.06130        0.61548
H          1.38753       -0.10358        0.37772
H          3.75716        0.86354        1.47406
H         -0.19894        1.77543        2.89080
H          4.68095        1.41498        3.69805
H          0.72506        2.32684        5.11475
H          4.41396        2.12953        5.97436
H          2.88496        1.60821        6.71538
H          3.09220        3.29387        6.20980
