20
PARACETAMOL.gamout	Energy:    -514.8562820
C          0.85797        0.21011        0.38428
C          0.67418       -1.18414        0.35802
C         -0.59836       -1.74425        0.30372
C         -1.72404       -0.91229        0.27464
O         -2.95408       -1.50717        0.22129
C         -1.54990        0.47492        0.30100
C         -0.27347        1.04062        0.35532
H          1.54511       -1.84413        0.37988
H         -0.73345       -2.82584        0.28318
H         -3.65263       -0.84316        0.20524
H         -2.42223        1.13336        0.27873
H         -0.14728        2.11892        0.37493
N          2.18492        0.69365        0.43710
C          2.63762        1.99125        0.46890
H          2.89739       -0.02386        0.45212
O          1.90366        2.96671        0.45630
C          4.15314        2.11475        0.52080
H          4.61678        1.64516       -0.36025
H          4.55946        1.62373        1.41839
H          4.41397        3.17701        0.54241
