21
PARALDEHYDE.gamout	Energy:    -460.9680289
O         -1.25006        0.11486       -0.50425
O         -0.91128        1.41748        1.38269
O         -1.11549       -0.88266        1.58338
C         -1.50157        1.36847        0.09899
C         -1.70739       -0.95329        0.30104
C         -1.36179        0.36115        2.20780
C         -0.92432        2.46513       -0.76154
C         -1.34263       -2.26530       -0.34774
C         -0.63430        0.41208        3.52897
H         -2.60102        1.48095        0.21780
H         -2.80767       -0.85026        0.42040
H         -2.45973        0.47030        2.34249
H          0.15992        2.32540       -0.85837
H         -1.38341        2.43492       -1.75780
H         -1.12393        3.44167       -0.30263
H         -1.80421       -2.32979       -1.34122
H         -0.25217       -2.33556       -0.44990
H         -1.70230       -3.09751        0.27055
H          0.44428        0.30195        3.35933
H         -0.82764        1.37365        4.02085
H         -0.98420       -0.40133        4.17707
