28
PARAQUAT_DICHLORIDE.gamout	Energy:    -574.4088584
N          3.58302       -0.01310        0.00219
N         -3.58245        0.01389        0.00359
C          0.69465       -0.00323        0.00274
C         -0.69408        0.00401        0.00301
C          1.50935        1.20918        0.00287
C         -1.50230        1.22266        0.00488
C          1.50287       -1.22188        0.00234
C         -1.50878       -1.20839        0.00153
C          2.86448        1.17708        0.00257
C         -2.85790        1.19824        0.00513
C          2.85847       -1.19746        0.00205
C         -2.86391       -1.17629        0.00176
C          5.02901        0.01251        0.00188
C         -5.02844       -0.01173        0.00386
H          1.04243        2.19217        0.00318
H         -1.03092        2.20335        0.00624
H          1.03149       -2.20256        0.00222
H         -1.04187       -2.19138       -0.00002
H          3.46243        2.08794        0.00262
H         -3.44850        2.11351        0.00653
H          3.44908       -2.11272        0.00177
H         -3.46186       -2.08715        0.00057
H          5.41541       -1.01340        0.00159
H          5.42203        0.52859       -0.89084
H          5.42242        0.52824        0.89463
H         -5.41486        1.01417        0.00538
H         -5.42183       -0.52638       -0.88952
H         -5.42146       -0.52893        0.89593
