27
PENTPY+1.gamout	Energy:    -444.6365456
C         -3.92655       -2.09596        0.61550
C         -3.08169       -0.82405        0.70533
H         -3.90961       -2.65603        1.56311
H         -3.55711       -2.76478       -0.17684
H         -4.97482       -1.85715        0.38827
C         -1.60976       -1.10393        1.04130
C         -0.74687        0.16513        1.07840
C          0.69785       -0.15461        1.47385
H         -0.75253        0.65915        0.09351
H         -1.17556        0.88352        1.79648
H         -1.55288       -1.61327        2.01910
H         -1.19481       -1.80928        0.30092
H         -3.50256       -0.15128        1.47114
H         -3.13617       -0.27533       -0.24989
N          1.58203        1.04898        1.51115
H          1.15342       -0.85670        0.76675
H          0.74758       -0.60727        2.47199
C          2.43419        1.30295        0.49388
C          3.26284        2.41417        0.51890
C          3.20961        3.28274        1.61021
C          2.31699        3.00748        2.64930
C          1.51322        1.88241        2.57338
H          2.44085        0.59107       -0.32896
H          3.94346        2.58513       -0.31326
H          3.85545        4.16062        1.65215
H          2.24375        3.65433        3.52200
H          0.80706        1.61425        3.35716
