12
PENTAFLUOROBENZENE.gamout	Energy:    -727.5919073
F          7.14413        2.88094       -0.94168
C          6.32969        1.86179       -0.67136
C          6.86167        0.61319       -0.33780
C          4.94296        2.02135       -0.71595
F          8.18070        0.44707       -0.29120
C          6.01505       -0.46173       -0.05266
F          4.44607        3.22093       -1.03627
C          4.08388        0.96341       -0.43534
F          6.53085       -1.64847        0.26449
C          4.63235       -0.27216       -0.10531
F          3.83173       -1.30751        0.16920
H          3.00395        1.09975       -0.47317
