46
PENTADECANOATE-1.gamout	Energy:    -738.6243267
O          8.96251        0.53134        0.02702
O          7.85389       -1.44054        0.09716
C         -1.12410        0.49475       -0.02149
C         -2.39671       -0.35553       -0.00381
C          0.16860       -0.32420       -0.00039
C         -3.68981        0.46244       -0.01305
C          1.44225        0.52539       -0.02376
C         -4.95822       -0.39289       -0.00298
C          2.73503       -0.29256        0.01457
C         -6.24959        0.42860       -0.00648
C          4.00810        0.55941       -0.01659
C         -7.52153       -0.42351       -0.00239
C          5.30723       -0.25231        0.04237
C         -8.81513        0.39664       -0.00743
C          6.57625        0.60007       -0.00125
C        -10.08133       -0.46330       -0.00453
C          7.93339       -0.18842        0.04656
H         -1.13186        1.14036       -0.91716
H         -1.13294        1.17998        0.84432
H         -2.38747       -1.00680        0.88766
H         -2.39189       -1.03500       -0.87399
H          0.17719       -0.96573        0.89820
H          0.17805       -1.01347       -0.86293
H         -3.70129        1.13740        0.86057
H         -3.70220        1.11760       -0.90167
H          1.42850        1.22267        0.83278
H          1.43816        1.15928       -0.92812
H         -4.95019       -1.06488       -0.87910
H         -4.94619       -1.05125        0.88352
H          2.74494       -0.99527       -0.83758
H          2.73778       -0.92085        0.92270
H         -6.25637        1.08938       -0.89112
H         -6.25560        1.09769        0.87179
H          4.00028        1.17786       -0.93279
H          3.98026        1.27347        0.82708
H         -7.51257       -1.08382        0.88269
H         -7.51128       -1.09259       -0.88070
H          5.31949       -0.86800        0.95667
H          5.33564       -0.97614       -0.78906
H         -8.82101        1.05656       -0.89188
H         -8.82259        1.06482        0.87067
H          6.59011        1.21685       -0.91781
H          6.58544        1.31918        0.83753
H        -10.99112        0.15569       -0.01119
H        -10.12288       -1.10737        0.88810
H        -10.11819       -1.11951       -0.88841
