27
PENTAMETHYLBENZENE.gamout	Energy:    -428.2427824
C          1.41699        4.89005        2.86762
C          2.44174        3.88392        2.38302
C          3.72781        4.31428        1.98365
C          2.12538        2.50938        2.32717
C          4.09723        5.78273        2.01857
C          4.70236        3.38498        1.55073
C          0.76667        1.97930        2.73138
C          3.09926        1.60982        1.88256
C          6.07484        3.87968        1.14779
C          4.38134        2.01351        1.49606
C          5.37610        0.97290        1.03105
H          1.80649        5.49807        3.69836
H          0.50283        4.40622        3.22373
H          1.12231        5.59003        2.06910
H          4.81153        5.99722        2.83142
H          3.23088        6.43311        2.16779
H          4.58355        6.09597        1.08328
H          0.53863        2.19092        3.78806
H          0.72233        0.89083        2.59666
H         -0.04432        2.42053        2.13089
H          2.84917        0.54727        1.83828
H          6.51273        4.53153        1.91879
H          6.03444        4.47413        0.21958
H          6.77788        3.05906        0.97592
H          5.72505        1.16608        0.00445
H          4.92307       -0.02700        1.04358
H          6.26907        0.94013        1.67490
