8
PENTAFLUOROETHANE.gamout	Energy:    -575.4070225
F          0.75759        1.10127       -1.22872
C          0.57237        0.01201       -0.47005
F          1.47681        0.00940        0.50917
F          0.75748       -1.07328       -1.23442
C         -0.86718        0.01056        0.09002
F         -1.03948       -1.09134        0.85303
F         -1.03957        1.10856        0.85860
H         -1.60402        0.01261       -0.72709
