8
PENTACHLOROETHANE.gamout	Energy:   -2376.7325931
Cl        -1.72342        1.46741       -0.25383
C         -0.78284       -0.00000       -0.65188
C          0.61451       -0.00000        0.02974
Cl         0.49162       -0.00000        1.80821
Cl         1.51505       -1.45518       -0.52047
Cl         1.51504        1.45518       -0.52047
Cl        -1.72342       -1.46741       -0.25383
H         -0.62512        0.00000       -1.73564
