30
PENTYLCYCLOPENTANE.gamout	Energy:    -392.5770383
C          2.34934        1.77307       -1.52095
C          3.28773        0.90368       -2.37964
C          1.58581        0.77832       -0.62203
C          3.74532       -0.17687       -1.37891
C          2.50193       -0.47697       -0.50976
H          2.96519        2.45071       -0.90607
H          1.68418        2.40446       -2.12722
H          2.68160        0.41227       -3.16401
C          4.41073        1.69114       -3.06038
H          1.35036        1.21032        0.36045
H          0.62429        0.50906       -1.08314
H          4.14563       -1.07551       -1.86723
H          4.55554        0.24110       -0.75785
H          2.77890       -0.69546        0.53088
H          1.97782       -1.36828       -0.88442
H          5.01437        2.19010       -2.28133
H          3.96123        2.50136       -3.66002
C          5.32980        0.86032       -3.96155
H          4.71897        0.34193       -4.72127
H          5.81557        0.06794       -3.36836
C          6.40807        1.69423       -4.66076
H          7.01224        2.21705       -3.89872
H          5.92311        2.48593       -5.25830
C          7.33425        0.87477       -5.56466
H          6.72685        0.35741       -6.32648
H          7.81030        0.07939       -4.96639
C          8.41434        1.71128       -6.25332
H          9.05941        2.21211       -5.51474
H          7.96740        2.49296       -6.88722
H          9.05784        1.08998       -6.89293
