17
PENTANOIC_ACID.gamout	Energy:    -346.5954887
O          2.31905        3.23918        1.49022
O          1.35630        3.76955       -0.46446
C          2.94095        0.68478        0.12534
C          2.77558       -0.82553       -0.07266
C          1.59446        1.42985        0.12637
C          4.10634       -1.58062       -0.07554
C          1.72538        2.92272        0.31421
H          3.46371        0.87958        1.07386
H          3.58029        1.09242       -0.67526
H          2.12627       -1.22361        0.72530
H          2.24360       -1.01201       -1.02042
H          0.96490        1.04501        0.94577
H          1.05631        1.27133       -0.81674
H          3.95217       -2.65959       -0.21853
H          4.76201       -1.22482       -0.88498
H          4.64390       -1.44061        0.87476
H          2.36683        4.20679        1.54587
