20
PERFLUORO-2-METHYLPENTANE.gamout	Energy:   -1624.6578683
C         51.85357       65.24538       -0.42138
C         50.57289       64.35536       -0.15253
C         49.20189       65.11643       -0.29261
C         50.57883       63.07678       -1.08407
F         50.65053       63.90416        1.13099
C         51.93794       66.63906        0.30144
F         52.92469       64.53788       -0.00448
F         51.95780       65.45286       -1.74950
F         48.18587       64.25074       -0.27377
F         49.04051       65.95527        0.73099
F         49.15038       65.80767       -1.43274
F         49.77194       62.15228       -0.56458
F         51.79765       62.54486       -1.18157
F         50.15095       63.38261       -2.31231
C         53.36339       67.30254        0.26056
F         51.08476       67.49410       -0.29175
F         51.60383       66.49943        1.59739
F         54.21291       66.66186        1.06013
F         53.24771       68.56264        0.68385
F         53.84957       67.30897       -0.98210
