15
PERFLUOROTOLUENE.gamout	Energy:   -1064.2652747
C          6.32472        1.82156       -0.65942
F          7.12216        2.85123       -0.93431
C          6.87616        0.57410       -0.32353
C          4.94810        2.02678       -0.71684
C          4.08296        0.96634       -0.43624
F          4.45647        3.21998       -1.03653
C          4.60313       -0.28333       -0.10193
F          2.77037        1.14849       -0.48815
F          3.78085       -1.29409        0.16493
C          5.98731       -0.47466       -0.04787
F          6.41283       -1.69240        0.27525
C          8.38844        0.43807       -0.28821
F          8.79003       -0.78477        0.07231
F          8.92652        1.31356        0.58256
F          8.92066        0.69710       -1.49890
