29
PERFLUORONONANE.gamout	Energy:   -2337.2316661
C         -3.24210        2.91814        0.46455
C         -1.92196        2.52227       -0.28884
C         -0.90872        1.67051        0.56309
C          0.41364        1.28220       -0.20583
C          1.42857        0.42725        0.65301
C          2.75104        0.04081       -0.11995
C          3.76601       -0.81824        0.73179
C          5.08210       -1.20462       -0.03864
C          6.10139       -2.06756        0.78754
F         -2.97343        3.65782        1.54017
F         -3.92339        1.83497        0.83852
F         -1.32700        3.66703       -0.67265
F         -2.28245        1.82463       -1.38175
F         -0.57974        2.38469        1.65629
F         -1.53440        0.54175        0.94830
F          1.02839        2.41637       -0.58974
F          0.07540        0.57296       -1.29833
F          1.76535        1.13572        1.74648
F          0.81081       -0.70576        1.03567
F          2.41570       -0.66766       -1.21397
F          3.37062        1.17315       -0.50129
F          3.15380       -1.95638        1.11105
F          4.11363       -0.11993        1.82939
F          4.76343       -1.91732       -1.13508
F          5.72386       -0.08223       -0.41350
F          6.51507       -1.41737        1.87500
F          7.15672       -2.31539        0.00910
F          5.55595       -3.22770        1.15274
F         -3.99720        3.63249       -0.37186
