15
PERFLUOROCYCLOPENTANE.gamout	Energy:   -1187.6311740
C          3.31641       -1.28336        0.61429
F          2.09134       -1.73966        0.33835
F          4.08727       -1.37670       -0.48739
C          3.30696        0.20519        1.10386
C          3.99866       -2.06388        1.77580
F          3.36514        1.05984        0.07640
F          2.18286        0.43424        1.80241
C          4.56731        0.35044        2.05786
F          3.10739       -2.20763        2.77839
F          4.44899       -3.26405        1.40144
C          5.13892       -1.11096        2.25673
F          4.19649        0.86217        3.23913
F          5.48902        1.14603        1.50165
F          6.21627       -1.28245        1.47070
F          5.48128       -1.34445        3.52801
