23
PERFLUOROHEPTANOIC_ACID.gamout	Energy:   -1713.8576913
F          1.59960        0.96716        0.75810
F          1.22835        0.70239       -1.38558
F          0.75168       -1.84124       -1.16187
F          0.46629       -1.74289        1.00848
F         -1.43076       -0.23102       -0.56472
F         -0.90397        0.59250        1.39863
F          2.98950       -1.29908        1.48422
F          3.43703       -0.78920       -0.60236
F         -1.02849        2.08068       -1.79237
F         -0.19512        3.00229        0.02066
F          4.34381       -3.23880        0.30514
F          2.98474       -3.33683       -1.37832
F          2.29322       -3.88537        0.60845
O         -3.47443        2.22643       -0.84383
O         -2.69740        2.96195        1.11630
C          0.86570        0.30252       -0.15321
C          1.16254       -1.23993       -0.02849
C         -0.64775        0.66603        0.08368
C          2.68414       -1.56491        0.20310
C         -1.06618        2.08738       -0.42612
C          3.08029       -3.05519       -0.07993
C         -2.50898        2.47893        0.04230
H         -3.12281        1.89917       -1.68633
