17
PFBS-1.gamout	Energy:   -1673.3368318
C         -3.79330        0.31712       -0.03655
C         -2.39944        1.02435       -0.14099
C         -1.14722        0.08592        0.02069
C          0.22487        0.81399        0.17839
F         -4.75410        1.21981       -0.31014
F         -3.90539       -0.67938       -0.91685
F         -4.01683       -0.15904        1.18895
F         -2.39853        1.98442        0.80933
F         -2.36919        1.61285       -1.35305
F         -1.12869       -0.70482       -1.06984
F         -1.37003       -0.67649        1.11201
F          0.23367        1.38394        1.40656
F          0.27909        1.81167       -0.73888
S          1.79700       -0.29710       -0.01630
O          1.82281       -0.57338       -1.47360
O          2.85601        0.61578        0.48342
O          1.48176       -1.45554        0.85705
