18
PHENYL_ACETATE.gamout	Energy:    -459.5539232
C          2.26960        0.88886        0.44656
O          2.53543        1.81630        1.41357
C          3.69559        2.58820        1.36837
C          0.97268        0.18337        0.74393
O          2.98214        0.68708       -0.50092
C          3.54257        3.97198        1.45732
C          4.96172        2.00130        1.32082
C          4.67928        4.78416        1.49646
C          6.08992        2.82465        1.35551
C          5.95478        4.21394        1.44284
H          1.04008       -0.32640        1.71560
H          0.15733        0.91646        0.81828
H          0.75998       -0.53980       -0.04925
H          2.53860        4.39571        1.50044
H          5.06146        0.91931        1.25096
H          4.56602        5.86716        1.56993
H          7.08267        2.37295        1.31428
H          6.84063        4.85021        1.46939
