14
PHENYLACETYLENE.gamout	Energy:    -307.9900765
C         -0.23886        0.39198       -0.02212
C         -1.35995        1.24744        0.00478
C         -0.44407       -1.00220       -0.07692
C         -2.64973        0.71707       -0.02305
C         -1.73791       -1.52252       -0.10440
C         -2.84457       -0.66721       -0.07780
C          1.08901        0.93040        0.00518
C          2.21303        1.38779        0.02835
H         -1.20495        2.32574        0.04705
H          0.42016       -1.66645       -0.09778
H         -3.50980        1.38891       -0.00202
H         -1.88412       -2.60343       -0.14701
H         -3.85495       -1.07868       -0.09964
H          3.20531        1.79295        0.04885
