16
PHENYL_ACETONITRILE.gamout	Energy:    -363.3280511
C          6.40864        1.85692       -0.57029
C          6.90653        0.56319       -0.39620
C          5.03015        2.09112       -0.55742
C          4.13409        1.03071       -0.37099
C          2.62651        1.24867       -0.30075
C          4.63949       -0.26688       -0.20163
C          6.01654       -0.49951       -0.21233
C          2.14512        2.45200       -0.98367
N          1.76933        3.40981       -1.51448
H          7.09478        2.69236       -0.72060
H          7.98250        0.38197       -0.40884
H          4.65132        3.10407       -0.70393
H          2.10036        0.38121       -0.72834
H          2.30300        1.31525        0.75267
H          3.95125       -1.10358       -0.06144
H          6.39474       -1.51513       -0.08204
