16
PHENYLHYDRAZINE.gamout	Energy:    -342.4880221
N          6.83858        4.14581       -1.40295
N          7.22419        2.93987       -0.81642
C          6.33856        1.88741       -0.59818
C          6.85190        0.59941       -0.33335
C          4.94251        2.06887       -0.60210
C          5.99320       -0.46566       -0.07604
C          4.60369       -0.28360       -0.07992
C          4.09264        0.98859       -0.34441
H          6.36493        4.73973       -0.72613
H          6.22707        3.99991       -2.20804
H          8.18034        2.68811       -1.02804
H          7.93384        0.44493       -0.32774
H          4.52068        3.05478       -0.79700
H          6.41380       -1.45303        0.12582
H          3.93403       -1.12096        0.12004
H          3.01267        1.15089       -0.35048
