26
PHENYL_SALICYLATE.gamout	Energy:    -726.1829666
C          6.47578        1.64609       -0.67448
C          6.68852        0.24431       -0.65827
C          5.21608        2.13337       -0.27151
C          7.55247        2.58540       -1.09805
C          5.65087       -0.60924       -0.24702
O          7.88272       -0.25956       -1.04126
C          4.19413        1.28309        0.13680
C          4.41759       -0.09835        0.14723
O          7.08869        3.87888       -1.10823
O          8.68041        2.29503       -1.40095
C          9.39285        7.21361       -2.10033
C          8.14433        6.99810       -2.69131
C          9.89220        6.28580       -1.18068
C          7.40078        5.85983       -2.36933
C          7.91383        4.94246       -1.45010
C          9.15729        5.14540       -0.84592
H          5.05509        3.20877       -0.28494
H          5.82527       -1.68825       -0.23965
H          7.87104       -1.22253       -0.98406
H          3.23108        1.69128        0.44462
H          3.62873       -0.78318        0.46334
H          9.97396        8.10133       -2.35438
H          7.74416        7.71735       -3.40813
H         10.86578        6.44772       -0.71460
H          6.42495        5.67312       -2.81891
H          9.54577        4.41950       -0.13445
