14
PHENYL_ISOCYANATE.gamout	Energy:    -399.2388129
C          6.82072        4.15980       -1.28213
N          6.87094        2.99709       -0.97457
C          6.10929        1.86879       -0.67531
O          6.88629        5.29320       -1.58194
C          6.77141        0.67425       -0.35521
C          4.70412        1.90764       -0.68787
C          6.03193       -0.46992       -0.04971
C          3.97647        0.75763       -0.38072
C          4.63423       -0.43489       -0.06044
H          7.86154        0.65823       -0.34947
H          4.19124        2.83768       -0.93770
H          6.55444       -1.39541        0.19902
H          2.88558        0.79555       -0.39206
H          4.06009       -1.33096        0.17910
