15
PHTHALIC_ANHYDRIDE.gamout	Energy:    -532.3123754
C         -3.38448        0.71357        0.50893
C         -2.49903       -0.08883       -0.20607
C         -2.89783        1.32323        1.67188
C         -1.18176       -0.28046        0.21470
C         -2.68957       -0.86508       -1.45887
C         -1.57151        1.13040        2.09540
C         -0.68865        0.32130        1.36944
C         -0.52120       -1.18083       -0.76597
O         -1.47402       -1.49169       -1.73668
O         -3.64690       -0.99375       -2.16105
O          0.59269       -1.60935       -0.80602
H         -4.41143        0.85701        0.17199
H         -3.55780        1.96045        2.26274
H         -1.22655        1.62138        3.00681
H          0.34189        0.16516        1.68933
