19
PINACOLONE.gamout	Energy:    -310.6850744
O         -1.09188        0.89548       -3.00774
C         -1.04448        2.96534       -1.79994
C         -2.31734        3.48646       -2.50219
C         -1.00899        3.47954       -0.35052
C          0.21156        3.45633       -2.55282
C         -1.06525        1.41799       -1.91110
C         -1.05051        0.56813       -0.65680
H         -2.33237        4.58622       -2.48649
H         -3.22644        3.12909       -1.99555
H         -2.35175        3.14851       -3.54531
H         -0.11187        3.14314        0.18816
H         -1.89158        3.16403        0.22356
H         -0.99569        4.57842       -0.35083
H          0.25360        4.55540       -2.53771
H          0.19633        3.11898       -3.59657
H          1.13137        3.07660       -2.08313
H         -1.91703        0.79999       -0.01909
H         -1.06769       -0.49014       -0.93734
H         -0.15464        0.78090       -0.05407
