17
PIPERIDINE.gamout	Energy:    -251.5666549
C          3.14423        3.35482        1.81903
C          3.91748        2.15432        1.25435
C          1.70501        3.38118        1.28285
C          3.14199        0.84602        1.48279
C          1.01137        2.02821        1.51254
N          1.76216        0.88293        1.00134
H          3.12037        3.28621        2.92104
H          3.66257        4.29542        1.57689
H          4.07186        2.29593        0.17016
H          4.91800        2.08347        1.71099
H          1.12541        4.18738        1.76111
H          1.72068        3.60037        0.20058
H          3.65682       -0.00232        1.00846
H          3.11106        0.63086        2.56600
H          0.87323        1.87672        2.59812
H          0.00702        2.01925        1.06407
H          1.73850        0.86631       -0.01580
