10
PR-1.gamout	Energy:    -267.5188905
O          1.87088       -1.64227        1.46825
C          1.35487       -2.08839        2.52345
O          0.45104       -2.95268        2.64563
C          1.92230       -1.53016        3.87090
C          2.72546       -0.23416        3.75863
H          1.07706       -1.41555        4.56927
H          2.55574       -2.32874        4.29803
H          3.18353        0.04878        4.72306
H          3.51784       -0.34432        3.00496
H          2.08557        0.59900        3.42673
