14
PRA+1.gamout	Energy:    -174.6150791
C          1.02087        0.04408       -0.02795
C          2.55295        0.07247       -0.05029
C          3.07972        1.25711       -0.84567
N          4.60218        1.26621       -0.84587
H          0.67121       -0.82279        0.54581
H          0.60573       -0.03418       -1.04305
H          0.60928        0.94778        0.44425
H          2.93595       -0.86341       -0.49099
H          2.93959        0.12245        0.98157
H          2.76813        2.21951       -0.41922
H          2.77431        1.22205       -1.89936
H          4.97137        1.32937        0.11143
H          4.98668        2.05509       -1.37970
H          4.97554        0.40136       -1.25746
