23
PROPYL_BUTANOATE.gamout	Energy:    -425.0809496
O          1.12798        0.02557       -0.03261
C          0.46151       -0.97169       -0.65251
C          1.12986       -2.14614       -1.38366
O         -0.74507       -0.93039       -0.62569
C          2.54377        0.21295        0.08058
C          2.63994       -2.37323       -1.52326
C          2.77124        1.48812        0.87982
C          2.93138       -3.64978       -2.31921
C          4.25775        1.79548        1.07088
H          0.67735       -2.11199       -2.38785
H          0.67547       -3.03246       -0.91200
H          2.99563        0.30346       -0.91734
H          2.99961       -0.64481        0.59504
H          3.11350       -2.45724       -0.53494
H          3.11567       -1.52236       -2.03113
H          2.27210        1.38036        1.85423
H          2.26986        2.31886        0.36134
H          2.50160       -4.53373       -1.82479
H          4.01349       -3.81312       -2.41922
H          2.50423       -3.59459       -3.33159
H          4.76980        0.98439        1.61127
H          4.39308        2.71842        1.65089
H          4.76915        1.93072        0.10539
