23
PROPYL_PHENYL_KETONE.gamout	Energy:    -462.9215001
C          0.70594       -0.16406        0.00087
C          1.71415       -1.14431        0.00125
C          3.05883       -0.77811        0.00060
C          3.41705        0.57571       -0.00044
C          2.42359        1.55917       -0.00069
C          1.07589        1.19262       -0.00006
C         -0.72954       -0.61486       -0.00019
O         -1.00363       -1.80227       -0.00174
C         -1.82776        0.44081        0.00067
C         -3.24464       -0.13087       -0.00023
C         -4.32048        0.95718        0.00041
H          1.41510       -2.19252        0.00210
H          3.83292       -1.54774        0.00096
H          4.47027        0.86242       -0.00108
H          2.69804        2.61544       -0.00127
H          0.31501        1.97215       -0.00006
H         -1.67514        1.09418        0.87735
H         -1.67479        1.09591       -0.87464
H         -3.36560       -0.78482       -0.87635
H         -3.36612       -0.78638        0.87465
H         -4.23702        1.60188        0.88938
H         -4.23648        1.60338       -0.88742
H         -5.32778        0.51734       -0.00027
