17
PROPYLENE_GLYCOL_DINITRATE.gamout	Energy:    -677.7197688
C         51.83272       29.68862       -0.11998
C         53.15464       28.91429       -0.08878
O         53.83208       29.06726        1.18479
C         52.91733       27.41277       -0.22193
O         51.95143       31.04339       -0.57866
N         54.75752       30.12720        1.30163
N         52.13143       32.03533        0.41843
O         55.28672       30.16039        2.37385
O         54.91164       30.84592        0.34443
O         52.21897       33.13551       -0.03996
O         52.16370       31.67100        1.56746
H         51.17183       29.23612       -0.87018
H         51.34134       29.65726        0.86013
H         53.81544       29.27945       -0.88424
H         53.86797       26.87395       -0.13290
H         52.47670       27.18871       -1.20242
H         52.23703       27.04939        0.56100
