14
PROPYL_FORMATE.gamout	Energy:    -307.3092934
C          1.56454       -4.91498       -5.90150
O          1.15097       -3.79254       -5.97837
O          2.87011       -5.21503       -5.92810
C          3.25496       -6.60038       -5.82689
C          4.77160       -6.67371       -5.87889
H          2.80423       -7.16425       -6.66000
H          2.87239       -7.01542       -4.88011
C          5.29443       -8.10808       -5.78194
H          5.17654       -6.06125       -5.05902
H          5.10891       -6.20623       -6.81650
H          4.99137       -8.58721       -4.83815
H          6.39196       -8.12273       -5.82383
H          4.92173       -8.73057       -6.60993
H          0.90405       -5.80704       -5.80154
