27
PROPMPYR+1.gamout	Energy:    -369.7083657
N          0.69816       -0.06048       -0.15820
C         -0.27037        0.32110       -1.28408
C          1.55620        1.19432        0.08383
C          1.11345        2.22511       -0.95581
H          2.61160        0.91886        0.01625
H          1.35732        1.53351        1.10538
C         -0.33909        1.84015       -1.25636
H         -1.21731       -0.20277       -1.12477
H          0.17162       -0.02894       -2.22398
H         -1.02140        2.20252       -0.47325
H         -0.69667        2.23681       -2.21306
H          1.72674        2.14648       -1.86536
H          1.22205        3.24750       -0.57484
C         -0.08715       -0.39150        1.07255
H         -0.78953        0.42322        1.26997
H          0.59125       -0.50072        1.92103
H         -0.63519       -1.32413        0.90707
C          1.54448       -1.24464       -0.59086
C          2.45743       -1.83119        0.48115
H          2.12989       -0.89219       -1.44927
H          0.84099       -2.00396       -0.95609
C          3.37459       -2.90889       -0.10680
H          2.80091       -3.73982       -0.54218
H          4.00649       -3.32213        0.68712
H          4.03897       -2.50633       -0.88530
H          1.85902       -2.27531        1.28841
H          3.07546       -1.04397        0.93834
