8
PROPARGYL_ALCOHOL.gamout	Energy:    -191.6233934
C          3.24798        1.77773        0.92886
C          1.96900        1.06941        0.89949
C          0.89545        0.51097        0.87348
O          4.31732        0.84681        1.04153
H          3.24546        2.48265        1.78132
H          3.34306        2.37951        0.00567
H         -0.05183        0.00859        0.85069
H          5.15331        1.32712        1.05345
