13
PROPYLENE_CARBONATE.gamout	Energy:    -381.2666614
C          2.88788        3.26399        1.55791
C          3.01439        1.78581        1.11154
O          1.79437        1.20039        1.60525
C          4.21660        1.04733        1.67215
O          1.65236        3.31249        2.27245
C          1.04286        2.10096        2.27979
O         -0.00098        1.86802        2.80491
H          3.69833        3.56859        2.23487
H          2.83676        3.96462        0.71408
H          2.98744        1.69826        0.01605
H          4.24364        1.12393        2.76852
H          4.17971       -0.01364        1.39259
H          5.14316        1.48151        1.26735
