22
PROPYL_ISOPROPYL_KETONE.gamout	Energy:    -349.9445881
C          1.80456        1.52105       -0.04827
C          3.03501        0.71285        0.33557
C          3.05109       -0.78620        0.01077
O          3.99841        1.23436        0.86135
C          1.97527        3.03433        0.06919
C          1.72813       -1.50578        0.30825
C          3.49156       -0.98362       -1.45386
C          0.70347        3.80499       -0.28983
H          1.50299        1.23608       -1.07088
H          0.97484        1.17800        0.59555
H          3.83850       -1.19976        0.65824
H          2.29032        3.27977        1.09366
H          2.80491        3.35267       -0.58037
H          1.84249       -2.58519        0.13574
H          1.41537       -1.36583        1.35296
H          0.91503       -1.15391       -0.34326
H          3.60305       -2.05566       -1.67297
H          4.45548       -0.49364       -1.64662
H          2.74946       -0.57680       -2.15749
H          0.85943        4.88918       -0.19795
H          0.38676        3.60053       -1.32466
H         -0.13219        3.53084        0.37300
