11
PROPIONIC_ACID.gamout	Energy:    -268.0794983
C          0.48535        0.10215       -0.00029
C         -0.73462       -0.79159       -0.00079
C         -2.05545       -0.02904        0.00107
O          0.48287        1.30929       -0.00085
O          1.63158       -0.61808        0.00071
H         -0.64919       -1.45519       -0.87658
H         -0.64820       -1.45783        0.87289
H         -2.13977        0.61308        0.88807
H         -2.14081        0.61568       -0.88394
H         -2.89936       -0.73277        0.00054
H          2.37409        0.00654        0.00013
