19
PROPIONIC_ANHYDRIDE.gamout	Energy:    -459.7939664
O          4.49606        1.32437        1.57934
C          3.25524        1.95087        1.52825
C          5.67820        2.03925        1.74223
C          0.76641        1.56753        1.86227
C          2.17968        1.02127        2.03366
O          3.10489        3.05210        1.08807
C          8.18804        1.93460        1.36407
C          6.82592        1.30448        1.09471
O          5.73622        3.06080        2.36041
H          0.64447        2.51991        2.39544
H          0.53801        1.74735        0.80282
H          0.03237        0.85197        2.25710
H          2.31156        0.05446        1.52192
H          2.41010        0.81471        3.09238
H          8.22164        2.97066        1.00140
H          8.41064        1.95064        2.43979
H          8.97732        1.36345        0.85654
H          6.78096        0.25755        1.43489
H          6.60528        1.26084        0.01480
