25
PROPYLPARABEN.gamout	Energy:    -613.2246412
C         -1.07734       -0.46937        0.05992
C         -0.05091       -1.30330       -0.41131
C         -2.41318       -0.82498       -0.11232
C         -0.39202       -2.50344       -1.05953
C          1.38985       -0.96908       -0.25051
C         -2.73909       -2.02598       -0.76070
C         -1.72139       -2.86726       -1.23537
O         -4.02411       -2.42463       -0.95612
O          2.30264       -1.66443       -0.64619
O          1.58668        0.20028        0.39071
C          2.94971        0.60845        0.60116
C          2.93886        1.93989        1.33362
C          4.35258        2.45999        1.60568
H         -0.82351        0.46146        0.56418
H         -3.20741       -0.17112        0.25661
H          0.41183       -3.14471       -1.42105
H         -1.99465       -3.79632       -1.73610
H         -4.64525       -1.78111       -0.59533
H          3.46877       -0.17100        1.17884
H          3.45390        0.68333       -0.37377
H          2.37564        2.67004        0.73176
H          2.39004        1.81954        2.28051
H          4.91030        2.61047        0.66885
H          4.92604        1.75527        2.22699
H          4.32057        3.42228        2.13450
