17
PROTOCATECHUIC_ACID.gamout	Energy:    -570.5978400
O         -3.66518        2.48132       -0.00089
O         -5.91086        1.09797        0.22298
O         -0.04692       -0.85338       -1.06573
O         -1.04946       -2.85916       -1.14113
C         -2.38399       -0.92874       -0.66017
C         -2.40029        0.46718       -0.48049
C         -3.58469        1.13540       -0.18538
C         -3.57718       -1.65298       -0.54003
C         -4.78563        0.39980       -0.06522
C         -4.76543       -0.98795       -0.24470
C         -1.13410       -1.66162       -0.97488
H         -1.47291        1.03347       -0.57384
H         -3.55943       -2.73308       -0.68003
H         -5.69822       -1.54932       -0.15006
H         -2.79791        2.88957       -0.10325
H         -6.67166        0.50845        0.28343
H          0.71138       -1.42034       -1.27195
