10
PYRIDAZINE.gamout	Energy:    -263.9519564
N         -2.25123       -0.97730       -0.32800
N         -1.99775        0.32042       -0.42878
C          0.04862       -1.41447        0.22839
C          0.31380       -0.05747        0.12311
C         -1.26964       -1.82277       -0.01125
C         -0.76220        0.77417       -0.21290
H          0.82320       -2.13919        0.48542
H          1.31043        0.35415        0.29217
H         -1.56074       -2.87397        0.05177
H         -0.63734        1.85475       -0.31555
