10
PYRIMIDINE.gamout	Energy:    -263.9899334
N          0.98160       -1.62990        0.08245
N         -1.36235       -1.20442        0.09198
C          0.17633        0.60769       -0.14113
C          1.21400       -0.32325       -0.06476
C         -1.12172        0.10070       -0.05534
C         -0.29692       -2.00556        0.15355
H          0.36950        1.67427       -0.26122
H          2.26046       -0.00795       -0.12367
H         -1.99096        0.76386       -0.10664
H         -0.49059       -3.07593        0.27438
