15
PYROGALLOL.gamout	Energy:    -457.3757870
O         -0.03966       -2.11288        0.00019
O         -2.39191       -0.76132        0.00031
O          2.33697       -0.79636        0.00010
C         -0.05349       -0.74427        0.00021
C         -1.24274       -0.00804        0.00030
C          1.18131       -0.08042        0.00019
C         -1.21066        1.38855        0.00038
C          1.22092        1.31773        0.00021
C          0.02688        2.04189        0.00031
H         -2.14331        1.95706        0.00039
H          2.19016        1.81608        0.00020
H          0.05796        3.13219        0.00039
H         -0.94726       -2.44450        0.00029
H         -3.17395       -0.19895        0.00041
H          2.12703       -1.74064        0.00012
