14
PYRROLIDINE.gamout	Energy:    -212.3000570
C          2.70648        0.79291        1.05832
C          1.22797        0.79386        1.53894
C          3.22368        2.22042        1.39511
C          1.02888        2.20189        2.16081
N          2.04405        3.07422        1.56375
H          3.30538        0.01529        1.55306
H          2.76569        0.60186       -0.02264
H          0.54311        0.64949        0.69066
H          1.01915       -0.00965        2.25920
H          3.78309        2.20439        2.34502
H          3.89356        2.63290        0.62936
H          0.02340        2.61323        2.00206
H          1.19952        2.16261        3.24954
H          1.72527        3.41815        0.66070
