10
PYRROLE.gamout	Energy:    -209.9025379
C          2.89718        0.90432        0.12795
C          1.47076        0.87702        0.16492
C          3.28871        2.21996        0.28659
C          1.03828        2.17686        0.34459
N          2.15108        2.98023        0.41639
H          3.56240        0.05475       -0.00030
H          0.83274        0.00259        0.07040
H          4.27492        2.67298        0.31701
H          0.03835        2.59178        0.42636
H          2.13509        3.98046        0.54519
