32
QUERCETIN.gamout	Energy:   -1102.8973160
C          1.18184       -1.59684        0.00483
O          1.18253       -2.85307        0.03492
C         -0.00678       -0.78925        0.01880
C          2.45341       -0.89518       -0.04715
C          0.11591        0.61170       -0.01882
C         -1.31248       -1.36521        0.07001
O          3.54176       -1.69522       -0.05777
C          2.51100        0.47785       -0.08137
O          1.33978        1.19001       -0.06643
C         -1.00108        1.44828       -0.00800
O         -1.45348       -2.69445        0.10650
C         -2.43422       -0.54282        0.08186
C          3.69545        1.33848       -0.13340
C         -2.26819        0.85169        0.04266
C          3.53601        2.74353       -0.16115
C          5.00574        0.81557       -0.15697
O         -3.40408        1.59432        0.05667
C          4.64082        3.58021       -0.21002
C          6.11034        1.66327       -0.20619
O          4.57278        4.95104       -0.23924
C          5.94561        3.04816       -0.23323
O          7.02362        3.86593       -0.28109
H          3.18722       -2.60605       -0.02609
H         -0.87464        2.53061       -0.03805
H         -0.55184       -3.10153        0.09074
H         -3.43268       -0.97491        0.12089
H          2.53714        3.17788       -0.14398
H          5.16147       -0.25764       -0.13663
H         -3.20346        2.53701        0.02764
H          7.12154        1.25640       -0.22432
H          3.66001        5.25787       -0.22147
H          6.72694        4.78704       -0.29398
