20
QUINALDINE.gamout	Energy:    -440.6764310
C         -1.59561       -1.41586        1.55993
C         -0.56338       -0.33096        1.73594
N         -1.18079       -2.61571        1.21018
C         -2.97960       -1.12443        1.77252
C         -2.08694       -3.62073        1.04198
C         -3.91458       -2.11698        1.60998
C         -3.49304       -3.42129        1.23274
C         -1.62055       -4.90948        0.66503
C         -4.38270       -4.51292        1.04033
C         -2.50867       -5.95041        0.48583
C         -3.90078       -5.75289        0.67415
H         -0.58742        0.07274        2.76047
H          0.43605       -0.73204        1.53413
H         -0.75711        0.51005        1.05159
H         -3.27844       -0.11539        2.06156
H         -4.97759       -1.91865        1.76657
H         -0.54674       -5.03937        0.52550
H         -5.45374       -4.35502        1.18690
H         -2.14036       -6.93666        0.19643
H         -4.59000       -6.58652        0.52826
