26
R-NICOTINE.gamout	Energy:    -498.3312171
N          1.72366       -0.56041        0.52183
N         -2.86768       -0.35280       -0.93936
C          0.89813       -0.11662       -0.60312
C          1.55589        1.22358       -1.06038
C          2.85788        1.33265       -0.23685
C          3.07660       -0.09410        0.26334
C         -0.57313       -0.01603       -0.24997
C          1.60712       -1.96800        0.83026
C         -1.02125        0.49301        0.97543
C         -1.55386       -0.42825       -1.16213
C         -2.39146        0.57366        1.22179
C         -3.27774        0.14001        0.23040
H          0.98446       -0.84032       -1.44335
H          0.89165        2.08091       -0.89450
H          1.76643        1.18405       -2.13769
H          3.70535        1.71495       -0.82124
H          2.71058        2.00316        0.62114
H          3.57514       -0.70627       -0.52246
H          3.69465       -0.15140        1.17055
H          2.21930       -2.21263        1.70855
H          1.93439       -2.61629       -0.01272
H          0.56477       -2.21962        1.06622
H         -0.29347        0.80246        1.72571
H         -1.24268       -0.84879       -2.12380
H         -2.77495        0.96053        2.16768
H         -4.36042        0.18700        0.39388
