16
SALICYLIC_ACID.gamout	Energy:    -495.4497241
C         -1.37604       -0.05953        0.01629
C         -0.72456        1.16791       -0.04909
C         -0.61673       -1.23493        0.04075
C          0.77342       -1.17157       -0.00151
C          1.43770        0.06438       -0.06813
O          2.78703        0.12154       -0.10255
C          0.68078        1.26346       -0.09237
C          1.33717        2.59706       -0.16123
O          2.52393        2.81479       -0.23140
O          0.43581        3.61816       -0.14053
H         -2.46501       -0.10142        0.04985
H         -1.30424        2.08847       -0.06778
H         -1.10806       -2.20812        0.09333
H          1.36500       -2.09059        0.01848
H          3.15915       -0.76815       -0.08247
H          0.94934        4.43823       -0.18805
