27
SEC-BUTYL_TERT-BUTYL_ETHER.gamout	Energy:    -390.3938085
O         -0.01524       -0.15144       -0.42080
C          1.35760       -0.20590        0.01833
C         -1.00173        0.67105        0.19103
C         -2.35465        0.13771       -0.29559
C          1.51755        0.05463        1.52239
C          1.78893       -1.64273       -0.31017
C          2.20301        0.78433       -0.80242
C         -0.84286        2.15958       -0.13282
C         -2.63863       -1.30739        0.11282
H         -0.96276        0.54182        1.28766
H         -3.14306        0.79835        0.09829
H         -2.38197        0.23030       -1.39323
H          0.90345       -0.63863        2.11388
H          2.56750       -0.10223        1.80424
H          1.25330        1.08372        1.79925
H          1.60768       -1.85163       -1.37299
H          1.20941       -2.36093        0.28514
H          2.85747       -1.79481       -0.10203
H          1.95825        1.82686       -0.56610
H          3.27427        0.63518       -0.60245
H          2.02577        0.62227       -1.87395
H         -0.85191        2.32007       -1.22070
H         -1.67456        2.72863        0.30792
H          0.08946        2.57309        0.27059
H         -2.63510       -1.41698        1.20873
H         -1.87869       -1.98478       -0.29812
H         -3.62338       -1.63209       -0.25227
