16
SEC-BUTYLAMINE.gamout	Energy:    -213.5151331
C          2.03397        1.03500        1.88972
C          3.27873        1.92693        1.75438
C          4.50856        1.26828        2.39917
N          2.98080        3.26556        2.27567
C          0.82457        1.51211        1.08414
H          1.76937        0.97625        2.96108
H          2.30072        0.00904        1.58958
H          3.48633        2.05638        0.67762
H          5.39437        1.91377        2.30618
H          4.33336        1.08275        3.47114
H          4.74152        0.30290        1.92290
H          2.80008        3.23777        3.27798
H          3.75223        3.91013        2.12467
H          0.54388        2.53444        1.36947
H          1.04711        1.51309        0.00577
H         -0.04137        0.85452        1.24808
