20
SEC-BUTYL_ACETATE.gamout	Energy:    -385.8484828
O          4.08569        2.36068        1.94481
C          2.81495        2.19460        1.25692
C          1.88080        3.25958        1.83057
C          2.33302        0.76047        1.43675
C          5.21771        2.04690        1.28666
C          0.55307        3.38438        1.08011
C          6.43227        2.25982        2.15560
O          5.24338        1.64552        0.14564
H          2.99394        2.38970        0.18989
H          1.70090        3.04163        2.89567
H          2.41530        4.22098        1.79701
H          2.19141        0.53262        2.50347
H          1.37614        0.61018        0.91855
H          3.05853        0.05394        1.01420
H         -0.04542        4.21052        1.48869
H          0.71855        3.58923        0.01125
H         -0.05408        2.47083        1.15648
H          7.33857        2.09432        1.56511
H          6.42840        3.27574        2.57359
H          6.40723        1.55817        3.00205
