16
STYRENE.gamout	Energy:    -309.2378217
C          0.89037        0.49744        1.99147
C          1.44668        1.53296        1.34523
C          2.81274        2.06490        1.50581
C          3.74867        1.51906        2.40845
C          3.21325        3.16867        0.72851
C          5.02854        2.05710        2.52500
C          4.49599        3.70906        0.84440
C          5.41033        3.15536        1.74377
H          1.42725       -0.08519        2.74256
H         -0.13661        0.19647        1.78474
H          0.83664        2.06301        0.60634
H          3.47077        0.66431        3.02572
H          2.50317        3.60665        0.02347
H          5.73659        1.61824        3.23062
H          4.78156        4.56519        0.23015
H          6.41347        3.57477        1.83805
