13
SUCCINATE_MONOANION-1.gamout	Energy:    -455.8943424
O          2.94132       -0.78318        0.02536
O         -2.88391        0.93927        0.02879
O          2.07240        1.30729       -0.02912
O         -2.31371       -1.22014       -0.02916
C          0.56824       -0.57041        0.00605
C         -0.54696        0.46933       -0.00366
C          2.00767        0.05209        0.00137
C         -1.95138       -0.06422       -0.00292
H          0.48211       -1.23618       -0.86669
H          0.47953       -1.22440        0.88749
H         -0.44230        1.13784       -0.87421
H         -0.44455        1.15521        0.85152
H         -3.74837        0.50071        0.01797
