11
SUCCINIC_ANHYDRIDE.gamout	Energy:    -380.0777186
C          0.91915        1.05333        1.11159
C          0.67659        1.50673        2.55396
C          2.41804        1.20595        0.90633
C          2.05743        1.85756        3.08506
O          2.99430        1.66409        2.08128
O          2.37076        2.24426        4.16777
O          3.06948        0.98708       -0.06715
H          0.64929        0.00487        0.92326
H          0.39861        1.65929        0.35755
H          0.23892        0.73319        3.19952
H          0.03653        2.39590        2.63855
