12
SUCCINATE_DIANION-2.gamout	Energy:    -455.2297934
O          2.94001       -0.86745        0.02002
O         -2.93848        0.86396       -0.00547
O          2.22652        1.27057       -0.02253
O         -2.22383       -1.27411        0.00562
C          0.57117       -0.51267        0.00242
C         -0.56950        0.51002       -0.00195
C          2.04034        0.02434        0.00013
C         -2.03836       -0.02759        0.00031
H          0.46961       -1.18734       -0.86364
H          0.46989       -1.18122        0.87346
H         -0.46764        1.17934       -0.87192
H         -0.46914        1.18394        0.86525
