14
SUCCINIC_ACID.gamout	Energy:    -456.4452743
C          3.10241        0.89355        1.49499
C          4.09580        1.92925        0.98033
C          1.67120        1.22674        1.14488
C          5.46421        1.78988        1.60565
O          0.83184        0.22210        1.47667
O          1.28482        2.25516        0.64268
O          6.37754        2.56605        0.98367
O          5.74235        1.09457        2.55349
H          3.17182        0.80301        2.59016
H          3.32713       -0.11356        1.11333
H          3.73137        2.94757        1.18849
H          4.20504        1.88594       -0.11315
H         -0.06997        0.49738        1.24700
H          7.22612        2.45469        1.44123
