15
SULFOLANE.gamout	Energy:    -705.2730378
S          0.58819        1.39245       -0.08736
O          2.05773        1.56191       -0.06363
O         -0.29545        2.57344       -0.20120
C          0.06248        0.36267        1.34837
C          0.13925        0.14626       -1.37196
C         -0.09366       -1.05199        0.78579
C         -0.68391       -0.91357       -0.63391
H          0.82825        0.47333        2.12398
H         -0.89029        0.78996        1.68618
H         -0.39716        0.67786       -2.16546
H          1.09202       -0.24450       -1.75087
H         -0.74039       -1.66236        1.43062
H          0.88723       -1.54855        0.73714
H         -0.66659       -1.87018       -1.17364
H         -1.73460       -0.59229       -0.56932
