30
SULFAMERAZINE.gamout	Energy:   -1192.8479898
S         -0.64366       -3.58507       -3.53809
O         -0.08611       -4.77166       -2.88470
O         -1.14328       -3.63474       -4.92227
N          0.56330       -2.37669       -3.66079
N          1.29399       -2.39770       -1.44352
N          2.55699       -1.33938       -3.16962
N         -4.91286       -1.32871       -0.05415
C         -1.90379       -2.89610       -2.48966
C         -1.95743       -3.25495       -1.13799
C         -2.85920       -2.03099       -3.03775
C         -3.93170       -1.85635       -0.85844
C         -2.96222       -2.73766       -0.33006
C         -3.86175       -1.51336       -2.22801
C          1.50881       -2.03580       -2.70732
C          2.21918       -2.05817       -0.53780
C          3.35676       -1.33196       -0.91570
C          3.46858       -0.99200       -2.26504
C          1.97016       -2.49220        0.87996
H          0.76695       -2.12346       -4.62230
H         -1.21019       -3.93505       -0.73411
H         -2.82265       -1.78264       -4.09816
H         -3.00940       -3.01787        0.72417
H         -4.61014       -0.84144       -2.65277
H          4.11900       -1.04455       -0.19262
H          4.32817       -0.42229       -2.63108
H          1.01620       -2.07556        1.23554
H          1.87737       -3.58741        0.92073
H          2.77513       -2.17393        1.55361
H         -5.04507       -1.67211        0.88454
H         -5.67457       -0.80271       -0.45374
