19
SULFANILAMIDE.gamout	Energy:    -890.7718738
S          0.62262       -0.71668        2.63123
O          1.95874       -0.11449        2.52826
O          0.39469       -2.16748        2.58372
N          0.04377       -0.23739        4.14502
N         -2.84195        1.82047       -1.52025
C         -0.41255        0.04147        1.38187
C         -0.07274        1.29676        0.86186
C         -1.55246       -0.62862        0.92019
C         -2.04616        1.23754       -0.56679
C         -0.88339        1.89055       -0.09845
C         -2.36286       -0.03555       -0.04065
H          0.83823        1.79267        1.19753
H         -1.78810       -1.62222        1.30196
H         -0.61202        2.86567       -0.50829
H         -3.24675       -0.56332       -0.40483
H         -0.88358       -0.60494        4.34401
H          0.11566        0.76607        4.29436
H         -2.61816        2.72240       -1.90928
H         -3.66560        1.35737       -1.86962
