7
SULFURIC_ACID.gamout	Energy:    -699.7186556
O          1.67000       -0.02211        0.74401
S          1.59167        1.39897        1.02168
O          1.46550        2.43437        0.01440
O          2.88244        1.82269        1.92368
O          0.37569        1.56777        2.09498
H          3.18794        1.04355        2.41915
H          0.08879        2.49705        2.10075
