7
SULFUR_HEXAFLUORIDE.gamout	Energy:    -996.3254385
S         -0.95828        0.30889        0.13877
F         -0.42998        1.00840        1.48477
F          0.32011        0.87073       -0.65505
F         -1.48660       -0.39064       -1.20721
F         -2.23667       -0.25295        0.93262
F         -1.77589        1.64021       -0.23394
F         -0.14070       -1.02245        0.51150
