24
SYRINGIC_ACID.gamout	Energy:    -724.2319171
O          7.58526        2.05031       -1.36966
C          7.11565        3.21529       -2.02073
C          6.69225        1.23484       -0.75669
C          7.23785        0.09728       -0.12847
C          5.31097        1.44915       -0.71263
O          8.57030       -0.11371       -0.16838
C          6.38865       -0.80992        0.53553
C          4.47661        0.53573       -0.04652
O          7.05098       -1.86563        1.09802
C          5.01374       -0.59913        0.58109
C          3.00914        0.72915        0.02090
C          6.30711       -2.85202        1.79526
O          2.57975        1.85016       -0.61269
O          2.23191       -0.01838        0.57792
H          6.61454        3.89494       -1.31185
H          7.99967        3.71023       -2.43492
H          6.41963        2.96527       -2.83842
H          4.86765        2.31790       -1.18950
H          8.75998       -0.93417        0.31047
H          4.33795       -1.28453        1.08661
H          7.03249       -3.58846        2.15449
H          5.77413       -2.41040        2.65196
H          5.58245       -3.34330        1.12716
H          1.61699        1.87973       -0.50879
