14
TARTRATE-2.gamout	Energy:    -605.5228779
O         -1.17572        1.45884        1.42316
O          1.02522       -1.34743        1.55666
O         -1.70051       -1.34798       -0.72895
O          1.43547        1.15838       -0.96013
O         -2.45422        0.78086       -0.65655
O          2.22082       -0.93744       -0.63639
C         -0.86049        0.13130        1.00258
C          0.68675       -0.08452        0.98406
C         -1.72753       -0.18843       -0.27202
C          1.49837        0.07021       -0.35597
H         -1.21016       -0.58100        1.77389
H          1.06469        0.71985        1.64365
H         -1.77264        1.73498        0.68668
H          1.59996       -1.71231        0.84173
