13
TDI-1.gamout	Energy:    -746.3820045
N         -0.99833       -0.46163       -0.26250
C          0.31904       -0.76716       -0.20036
C          0.46955       -2.16664       -0.39196
N         -0.75814       -2.71309       -0.57025
C          1.66435       -2.93922       -0.40957
C          1.32471        0.21463        0.02273
N          2.64674       -3.56145       -0.42030
N          2.15226        1.01027        0.20575
C         -1.57161       -1.65240       -0.48309
C         -3.05777       -1.77045       -0.59813
F         -3.44569       -2.99928       -0.98571
F         -3.69111       -1.51704        0.58135
F         -3.57701       -0.88996       -1.49058
