18
TEREPHTALIC_ACID.gamout	Energy:    -608.6821072
O          0.81956        3.00880        0.11731
C          1.49254        1.88467       -0.21580
O          0.92855        0.88700       -0.60400
C          2.97073        2.01448       -0.05298
C          3.56785        3.20189        0.40299
C          3.77108        0.90581       -0.36994
C          4.95173        3.27481        0.53892
C          5.15495        0.97874       -0.23404
C          5.75208        2.16616        0.22194
C          7.23026        2.29594        0.38482
O          7.90322        1.17176        0.05183
O          7.79426        3.29363        0.77299
H         -0.12413        2.83295       -0.01863
H          2.94551        4.06061        0.64820
H          3.28939       -0.00605       -0.72197
H          5.43342        4.18670        0.89089
H          5.77732        0.12004       -0.47923
H          8.84691        1.34759        0.18776
