21
TERT-BUTYL_ETHYL_ETHER.gamout	Energy:    -311.8772215
O          0.48527       -0.49306       -0.03014
C         -0.85391        0.03554        0.01009
C         -1.12724        0.94561       -1.19864
C         -1.73947       -1.21271       -0.05444
C         -1.09362        0.78781        1.32925
C          1.57678        0.40037       -0.14519
C          2.85896       -0.38897        0.06407
H         -0.89549        0.41844       -2.13461
H         -2.18583        1.23952       -1.21967
H         -0.53116        1.86763       -1.15951
H         -1.51026       -1.88261        0.78533
H         -1.55672       -1.75868       -0.98965
H         -2.80332       -0.94176       -0.00682
H         -0.46360        1.68389        1.41235
H         -2.14089        1.11592        1.39760
H         -0.88003        0.13180        2.18418
H          1.58942        0.87068       -1.14495
H          1.50555        1.21202        0.59936
H          3.73386        0.26834       -0.04062
H          2.87703       -0.84110        1.06538
H          2.93435       -1.19338       -0.68053
