30
TERT-BUTYLCYCLOHEXANE.gamout	Energy:    -392.5730438
C          2.09841        2.28491        4.22645
C          2.01081        2.15759        2.69269
C          1.02945        3.21919        2.15354
C          1.43413        0.76902        2.34332
C          3.40653        2.33542        2.00745
C          3.94251        3.79340        2.04120
C          4.50744        1.38918        2.52112
C          5.47366        3.88097        1.85263
C          5.72033        1.37828        1.56431
C          5.98321        2.76610        0.93404
H          2.72676        1.49759        4.66510
H          1.09724        2.19510        4.67224
H          2.50968        3.25566        4.53736
H          1.32034        4.23850        2.43924
H          0.96780        3.17957        1.05531
H          0.01882        3.04384        2.55009
H          1.35476        0.63723        1.25384
H          0.42642        0.65598        2.76851
H          2.05012       -0.04939        2.73857
H          3.24023        2.07718        0.94634
H          3.67316        4.27645        2.99202
H          3.44674        4.37633        1.25133
H          4.13331        0.36505        2.64639
H          4.82934        1.71920        3.52121
H          5.97772        3.79778        2.82898
H          5.74493        4.86990        1.45449
H          5.55356        0.63531        0.76884
H          6.61167        1.04222        2.11589
H          7.05447        2.89347        0.71963
H          5.46653        2.84441       -0.03661
