18
TERT-BUTYLFORMAMIDE.gamout	Energy:    -326.7300468
N         35.05357       26.91908       -0.02736
C         33.74713       26.22582        0.01026
C         36.27970       26.34273       -0.09126
C         32.67412       27.32477        0.03434
C         33.56910       25.35594       -1.24921
C         33.63544       25.36023        1.28052
O         37.33408       26.95517       -0.08238
H         35.06394       27.92979        0.05520
H         36.24837       25.23282       -0.15869
H         31.67154       26.87859        0.06242
H         32.78485       27.96372        0.92291
H         32.74097       27.95690       -0.86286
H         32.57819       24.87953       -1.24592
H         34.32188       24.55749       -1.29715
H         33.65959       25.96700       -2.15733
H         33.76287       25.97635        2.18106
H         32.65052       24.87330        1.32798
H         34.39995       24.57116        1.29662
