16
TERT-BUTYL_HYDROPEROXIDE.gamout	Energy:    -308.4187235
O          0.15473       -0.12692        0.74946
O          1.37931       -0.13033       -0.01738
C         -0.98258       -0.01543       -0.14191
C         -1.07559       -1.25220       -1.04088
C         -2.14832        0.04499        0.84993
C         -0.87897        1.27456       -0.96192
H         -1.12289       -2.16808       -0.43484
H         -1.98167       -1.20393       -1.66188
H         -0.20887       -1.31314       -1.71142
H         -2.03907        0.90874        1.51870
H         -2.18824       -0.86807        1.45900
H         -3.09636        0.14158        0.30294
H         -0.00544        1.24544       -1.62468
H         -1.77861        1.40269       -1.58115
H         -0.78487        2.14405       -0.29759
H          1.72660       -1.00980        0.19165
