29
TERT-OCTYLAMMONIUM+1.gamout	Energy:    -370.9182342
N          0.52823        0.09558        0.06497
C          0.33185       -1.42500       -0.14808
C          1.06432       -2.15782        0.99898
C          2.61351       -2.24792        1.13153
C          3.22073       -3.24057        0.12541
C          3.30509       -0.88009        0.99842
C          2.88037       -2.78848        2.55199
C         -1.17333       -1.66670       -0.02414
C          0.80352       -1.71991       -1.57055
H          0.14824        0.38904        0.97142
H          0.05698        0.64055       -0.66613
H          1.52802        0.33041        0.05833
H          0.67610       -3.18486        0.97723
H          0.67076       -1.73313        1.93738
H          3.16678       -2.89201       -0.91211
H          2.71371       -4.21322        0.18401
H          4.28219       -3.40997        0.35447
H          3.25987       -0.47627       -0.02777
H          4.37455       -0.96792        1.22708
H          2.89842       -0.14221        1.70903
H          2.36935       -3.74765        2.70994
H          2.53162       -2.08892        3.32460
H          3.95398       -2.95199        2.70683
H         -1.53379       -1.48786        0.99827
H         -1.39583       -2.71057       -0.27476
H         -1.74138       -1.03578       -0.72090
H          1.82993       -1.38490       -1.75910
H          0.13994       -1.24722       -2.31029
H          0.76967       -2.80120       -1.74447
