14
TERT-BUTYL_CHLORIDE.gamout	Energy:    -617.6491223
C          1.01923        2.55685        0.78079
C          1.85588        2.03716        1.94794
C          3.30368        1.77968        1.53854
C          1.22241        0.81268        2.60273
Cl         1.88676        3.39061        3.23585
H         -0.00721        2.78020        1.09860
H          0.98037        1.78868       -0.00774
H          1.46011        3.46796        0.35692
H          3.32862        0.98156        0.77960
H          3.90667        1.45924        2.39789
H          3.75959        2.68105        1.10936
H          0.20071        1.02895        2.94016
H          1.81094        0.47543        3.46563
H          1.17972       -0.00769        1.86876
