21
TERT-AMYL_METHYL_ETHER.gamout	Energy:    -311.8706946
O          0.87317        0.39433        1.45438
C          0.96240       -0.67080        0.48741
C          2.31992       -0.64210       -0.25429
C          0.81083       -1.94017        1.33246
C         -0.18750       -0.58232       -0.52992
C          3.55946       -0.65480        0.64221
C          0.90378        1.72566        0.99697
H          2.34496       -1.50662       -0.93650
H          2.34944        0.24550       -0.90532
H         -0.19454       -1.98273        1.77221
H          1.53866       -1.94668        2.15291
H          0.96319       -2.83860        0.71795
H         -0.21614       -1.49211       -1.14587
H         -1.15032       -0.49021       -0.00872
H         -0.07234        0.27202       -1.21098
H          3.65274       -1.59819        1.19824
H          3.52419        0.16144        1.37675
H          4.47138       -0.53533        0.04005
H          0.85929        2.36419        1.88832
H          0.04212        1.97033        0.35231
H          1.82952        1.96547        0.44532
