15
TERT-BUTANOL.gamout	Energy:    -233.3727767
C          0.77417        1.16352        2.66191
C          1.72974        1.76612        1.62384
C          2.80427        2.61624        2.30187
C          2.36430        0.66682        0.76287
O          1.00993        2.68270        0.78202
H         -0.00503        0.55983        2.17176
H          1.31180        0.50918        3.36388
H          0.28466        1.96302        3.23375
H          3.41808        2.00334        2.97608
H          3.45843        3.07212        1.54696
H          2.33591        3.42052        2.88435
H          3.01224        1.11246       -0.00358
H          2.96747       -0.01787        1.37716
H          1.58917        0.06920        0.25923
H          0.31018        2.21016        0.31626
