16
TERT-BUTYLAMINE.gamout	Energy:    -213.5180539
C          1.99992        3.01113        0.68993
C          2.15209        2.04944        1.88027
C          0.93796        2.18843        2.82320
C          3.44744        2.35775        2.64710
N          2.27799        0.68735        1.33018
H          2.85424        2.90953        0.00751
H          1.94119        4.05442        1.03174
H          1.08099        2.79059        0.12521
H          0.85383        3.20995        3.22600
H          0.00279        1.95911        2.29039
H          1.02299        1.49729        3.67570
H          4.31869        2.25058        1.98724
H          3.43119        3.38046        3.05020
H          3.57454        1.66689        3.49529
H          2.39359       -0.00310        2.06910
H          1.44981        0.42201        0.80137
