31
TETRAETHYLENE_GLYCOL.gamout	Energy:    -690.9041590
C          5.14838        3.57156        0.92393
O          4.68875        4.36675        1.99378
C          3.67671        5.27716        1.63134
C          6.24695        2.66121        1.44780
C          3.21029        6.04423        2.84912
O          6.68678        1.86015        0.36412
O          2.45458        5.20043        3.68839
C          7.55506        0.79449        0.67658
C          2.01751        5.81888        4.87707
C          9.01501        1.18914        0.88533
C          1.21385        4.80328        5.67253
O          9.27040        1.92709        2.07089
O          0.77422        5.44803        6.85888
H          5.54668        4.20332        0.10748
H          4.32495        2.96353        0.50542
H          2.81741        4.74503        1.18147
H          4.05907        5.99735        0.88155
H          5.84415        2.02458        2.25709
H          7.06919        3.26229        1.86415
H          2.59455        6.90284        2.51687
H          4.08811        6.44546        3.38942
H          7.51326        0.10557       -0.18145
H          7.18312        0.24174        1.56350
H          1.38582        6.69996        4.65402
H          2.87662        6.16926        5.47916
H          9.33435        1.83350        0.05502
H          9.62966        0.26927        0.85358
H          0.36264        4.45618        5.06156
H          1.85112        3.93082        5.89681
H          9.05970        1.38932        2.84298
H          0.26809        4.83483        7.40045
