13
TETRAHYDROFURAN.gamout	Energy:    -232.1506504
C          0.70883        2.12293        0.99009
C          1.87901        3.00221        1.45297
C          3.09046        2.21189        0.94576
O          2.69780        0.83740        0.94477
C          1.28880        0.71376        1.15079
H         -0.20776        2.27475        1.57572
H          0.47304        2.32083       -0.06664
H          1.84090        4.02341        1.05088
H          1.89812        3.07038        2.55135
H          3.36330        2.51322       -0.08155
H          3.98050        2.32507        1.58198
H          0.88794       -0.00607        0.42249
H          1.10237        0.31569        2.16463
