6
TETRAFLUOROETHYLENE.gamout	Energy:    -475.0058511
C          2.17922        1.23441        0.11480
F          2.82068        2.38483        0.18049
F          2.98394        0.18958        0.10112
C          0.85237        1.13760        0.06690
F          0.21096       -0.01285        0.00121
F          0.04762        2.18239        0.08058
