13
TETRANITROMETHANE.gamout	Energy:    -857.4690388
N         10.90811       30.87141       -0.13916
C         12.43798       31.00025        0.00043
N         12.74193       32.50511        0.13731
N         12.94700       30.22105        1.22948
N         13.15461       30.40292       -1.22653
O         10.35907       30.05227        0.55526
O         10.43002       31.62643       -0.95174
O         13.61289       32.95655       -0.56448
O         12.05272       33.06703        0.95467
O         12.92289       29.02181        1.08760
O         13.30605       30.86843        2.18168
O         14.34845       30.28870       -1.08322
O         12.47098       30.11944       -2.17897
