6
TETRACHLOROETHYLENE.gamout	Energy:   -1916.1081897
C          2.39987        2.23330        1.03679
C          1.31169        1.44078        0.94972
Cl        -0.05477        1.84757       -0.03014
Cl         1.18435       -0.05437        1.81011
Cl         3.76569        1.82571        2.01687
Cl         2.52657        3.72815        0.17612
