37
TETRAETHYLENE_GLYCOL_DIMETHYL_ETHER.gamout	Energy:    -769.3974493
C         -0.88226       -1.48061        0.78364
C          0.88227       -1.48063       -0.78367
C         -1.87740       -0.57825        1.47967
C          1.87743       -0.57828       -1.47969
C         -3.75193        0.80579        1.10126
C          3.75194        0.80576       -1.10127
C         -4.77087        1.19755        0.05357
C          4.77086        1.19755       -0.05356
C         -6.52639        0.35213       -1.27293
C          6.52636        0.35214        1.27299
O          0.00000       -0.71160       -0.00003
O         -2.80729       -0.07809        0.54673
O          2.80730       -0.07811       -0.54675
O         -5.61295        0.10452       -0.23242
O          5.61294        0.10452        0.23245
H         -0.31955       -2.05110        1.54834
H         -1.43184       -2.20769        0.15572
H          0.31957       -2.05113       -1.54836
H          1.43184       -2.20770       -0.15572
H         -2.39929       -1.16212        2.26284
H         -1.33690        0.24973        1.97726
H          2.39932       -1.16216       -2.26285
H          1.33694        0.24969       -1.97730
H         -3.25132        1.72226        1.47179
H         -4.27105        0.33470        1.95824
H          3.25134        1.72223       -1.47183
H          4.27109        0.33466       -1.95824
H         -5.36566        2.05077        0.43667
H         -4.24465        1.53517       -0.85968
H          5.36566        2.05076       -0.43667
H          4.24461        1.53518        0.85967
H         -7.12921       -0.55479       -1.40725
H         -7.19782        1.19772       -1.02907
H         -6.00505        0.58198       -2.22101
H          7.12917       -0.55477        1.40733
H          7.19778        1.19774        1.02914
H          6.00498        0.58200        2.22106
