7
TFA-1.gamout	Energy:    -525.7056494
C         -0.93681       -0.00528        0.16601
C         -2.48970        0.05908       -0.14793
O         -2.83883        1.17129       -0.57898
O         -3.11568       -0.98934        0.07848
F         -0.56345        0.92528        1.08821
F         -0.50789       -1.19466        0.64890
F         -0.18153        0.23902       -0.94141
