26
THEA+1.gamout	Energy:    -517.7973075
C         -4.15729        1.20432        0.33028
C         -2.70295        0.97651        0.70617
N         -1.72786        1.16890       -0.43573
H         -2.58999       -0.05953        1.04131
H         -2.38635        1.63614        1.52015
C         -0.41231        0.46169       -0.17457
C         -0.50814       -1.03706       -0.46431
H          0.34021        0.90276       -0.83474
H         -0.11594        0.66989        0.85672
C         -1.55344        2.61783       -0.88894
C         -1.20247        3.60614        0.20528
H         -2.50213        2.91877       -1.34270
H         -0.76976        2.59030       -1.65403
O         -0.02317        3.18355        0.86334
H         -2.04230        3.72803        0.90785
H         -1.06823        4.57445       -0.30380
H          0.34223        3.89163        1.40702
O         -4.37723        2.57231        0.05485
H         -4.42610        0.57007       -0.53627
H         -4.76106        0.85991        1.18569
H         -5.32104        2.76996        0.02140
O          0.81114       -1.50722       -0.37624
H         -0.92780       -1.19248       -1.47967
H         -1.17054       -1.55038        0.25570
H          0.85113       -2.46675       -0.46517
H         -2.14023        0.69836       -1.24941
