21
THEOPHYLLINE.gamout	Energy:    -640.2959489
O         -3.27630        2.59014       -1.58567
O         -0.68715       -1.20880       -1.93134
N         -1.37328       -0.61953        0.15789
N         -1.97278        0.67870       -1.76113
N         -3.31331        2.01385        1.42355
N         -2.24981        0.24532        2.27726
C         -2.07880        0.27327        0.92779
C         -2.72394        1.35651        0.36074
C         -2.71852        1.64342       -1.04541
C         -1.30420       -0.43444       -1.21846
C         -0.68487       -1.76981        0.73802
C         -1.86603        0.82365       -3.21483
C         -2.99781        1.30786        2.53968
H         -3.86854        2.85715        1.35979
H         -1.07997       -2.70038        0.31123
H          0.38873       -1.71722        0.51733
H         -0.84996       -1.74987        1.81861
H         -2.42459        1.71793       -3.50042
H         -0.81267        0.91968       -3.50578
H         -2.28027       -0.06245       -3.71148
H         -3.33547        1.60439        3.52978
