7
THIACYCLOPROPANE.gamout	Energy:    -476.5081717
C          2.02254        0.32678        0.88710
C          0.54165        0.34346        0.88710
S          1.30110        2.01568        0.85520
H          2.53836        0.05918        1.81223
H          2.53798        0.02419       -0.02742
H          0.01943        0.05271       -0.02741
H          0.01985        0.08771        1.81222
