9
THIOPHENE.gamout	Energy:    -552.6345000
C          2.98958        0.13854        0.90207
C          1.56102        0.12862        0.91953
C          3.53180        0.31628        2.14927
C          1.04721        0.29911        2.17962
S          2.30300        0.47381        3.36021
H          3.58943        0.01851        0.00054
H          0.94097        0.00017        0.03293
H          4.58122        0.36388        2.42776
H          0.00443        0.33215        2.48358
