15
TOLUENE.gamout	Energy:    -271.2029842
C          5.00833        0.86992        2.13313
C          3.60928        1.43668        2.13806
C          2.89250        1.57602        0.93919
C          2.99097        1.83742        3.32957
C          1.60003        2.09950        0.93132
C          1.69590        2.36288        3.32886
C          0.99695        2.49534        2.12861
H          5.68529        1.48066        1.51494
H          5.42421        0.83017        3.14797
H          5.02700       -0.15158        1.72132
H          3.35574        1.26991       -0.00119
H          3.53139        1.73706        4.27270
H          1.05847        2.20056       -0.01131
H          1.23034        2.67015        4.26809
H         -0.01261        2.90474        2.12359
