18
TOS-1.gamout	Energy:    -894.0732750
O         -0.30928       -1.21917       -0.49926
S          0.34039       -1.07457        0.84257
O         -0.37086       -0.12895        1.75962
O          0.72581       -2.37597        1.47365
C          1.95289       -0.25621        0.48020
C          2.08400        1.13482        0.55886
C          3.30846        1.74310        0.26616
C          4.42503        0.98061       -0.10906
C          4.28049       -0.41099       -0.18143
C          3.05855       -1.02622        0.11124
C          5.74286        1.65060       -0.41522
H          5.64778        2.36231       -1.25155
H          6.51394        0.91572       -0.68665
H          6.11320        2.22108        0.45235
H          1.21947        1.72340        0.86702
H          3.40556        2.83196        0.33490
H          2.95375       -2.11055        0.07421
H          5.14216       -1.02248       -0.46542
