24
TRANS-2-OCTENE.gamout	Energy:    -314.0405116
C          4.96547        3.89932        3.34739
C          4.08303        4.18587        2.11480
C          2.74733        3.43435        2.08946
C          5.44609        2.47675        3.45211
C          1.87153        3.79987        0.88602
C          6.72353        2.08640        3.36071
C          0.53466        3.05520        0.85174
C          7.21058        0.66955        3.45414
H          4.39139        4.16044        4.25479
H          5.83647        4.57269        3.32542
H          3.88102        5.26971        2.07853
H          4.65545        3.94519        1.20357
H          2.92886        2.34690        2.08156
H          2.19344        3.64689        3.02112
H          4.67859        1.71004        3.61114
H          1.68573        4.88720        0.89273
H          2.42994        3.59150       -0.04214
H          7.49391        2.85248        3.20756
H         -0.06283        3.26959        1.75151
H         -0.06322        3.34588       -0.02421
H          0.68826        1.96576        0.80668
H          6.37779       -0.03213        3.60668
H          7.74697        0.37061        2.53823
H          7.92034        0.54529        4.28893
