19
TRANS-BETA-METHYLSTYRENE.gamout	Energy:    -348.5017637
C          2.97594        1.45712        3.81494
C          3.75742        1.28163        4.97651
C          3.19226        1.39010        6.24541
C          1.60742        1.74559        3.98431
C          3.52182        1.35253        2.44968
C          1.03963        1.85464        5.25578
C          1.82952        1.67722        6.39431
C          4.78886        1.08628        2.09019
C          5.27464        0.99435        0.67491
H          4.82057        1.05712        4.88589
H          3.81924        1.24963        7.12816
H          0.98207        1.88573        3.09975
H          2.78972        1.51422        1.65056
H         -0.02416        2.07903        5.35609
H          1.39020        1.76140        7.38980
H          5.54557        0.91918        2.86362
H          6.07323        1.72979        0.47975
H          5.70719        0.00132        0.46665
H          4.46267        1.17179       -0.04404
