22
TRANS-4-METHYLCYCLOHEXANOL.gamout	Energy:    -349.9506361
C          0.09014        0.76906        1.28791
C          0.99021        0.82244        0.05096
C          1.70323        2.17975       -0.08365
C          2.02455       -0.31748        0.05019
C          2.63583        2.23601       -1.30041
C          2.95380       -0.25802       -1.16913
C          3.65569        1.09991       -1.27769
O          4.44356        1.20679       -2.46111
H         -0.66964        1.56431        1.26759
H         -0.43533       -0.19467        1.35908
H          0.68220        0.89661        2.20815
H          0.35273        0.69231       -0.84310
H          0.96075        2.98979       -0.14613
H          2.28613        2.36617        0.83616
H          1.51231       -1.29120        0.08358
H          2.62531       -0.25204        0.97492
H          3.16414        3.19940       -1.34351
H          2.05201        2.15070       -2.23177
H          3.70331       -1.06487       -1.11513
H          2.37680       -0.41938       -2.09481
H          4.30714        1.23296       -0.39083
H          5.09143        0.49400       -2.48675
