12
TRANS-CROTONIC_ACID.gamout	Energy:    -306.1176664
C          2.44075        1.98462        1.32112
C          3.85146        1.55084        1.42437
C          2.12457        3.26982        1.10130
O          3.94545        0.21552        1.64466
O          4.83121        2.25755        1.33146
C          0.73855        3.81228        0.97967
H          1.67503        1.21392        1.43132
H          2.95279        3.97983        1.00286
H          4.88869       -0.00402        1.70213
H          0.60121        4.30206        0.00141
H          0.55918        4.58753        1.74281
H         -0.02352        3.02901        1.08959
