24
TRANS-1,4-DIMETHYLCYCLOHEXANE.gamout	Energy:    -314.0602899
C          5.80088        0.82954        1.44816
C          4.83923        1.90791        1.95839
C          3.84044        1.35648        3.01186
C          4.07897        2.57716        0.78754
C          2.51137        0.93526        2.37301
C          2.76660        3.21175        1.25475
C          1.76063        2.14341        1.74967
C          0.73884        2.75171        2.71585
H          5.24846       -0.01372        1.00348
H          6.47206        1.22945        0.67314
H          6.42472        0.43001        2.26154
H          5.44570        2.68799        2.44946
H          4.29102        0.50905        3.55079
H          3.64294        2.12702        3.77363
H          4.72448        3.32489        0.30268
H          3.85629        1.82168        0.01363
H          2.71106        0.18153        1.59502
H          1.87027        0.43750        3.11647
H          2.98057        3.92029        2.07383
H          2.31270        3.80922        0.44976
H          1.20742        1.77381        0.86952
H          1.22564        3.07789        3.64874
H          0.24784        3.63200        2.27395
H         -0.04496        2.02681        2.98200
