27
TRANS-1-METHYL-2-ETHYLCYCLOHEXANE.gamout	Energy:    -353.3257224
C          0.90916        1.90523        4.36077
C          1.81968        1.25321        3.31495
C          3.29943        1.67843        3.38640
C          4.12145        1.20044        2.16056
C          3.94891        1.20062        4.70095
C          3.58425        1.72962        0.82371
C          5.60625        1.58498        2.30965
C          6.23012        1.10225        3.62201
H          1.16613        1.60659        5.38641
H          0.96925        3.00315        4.30358
H         -0.14010        1.62267        4.19220
H          1.41762        1.48503        2.31913
H          1.76671        0.15459        3.41117
H          3.33075        2.78573        3.38193
H          4.06398        0.09538        2.13787
H          3.38792        1.59786        5.55869
H          4.24766        1.43240       -0.00185
H          2.58089        1.35374        0.58613
H          3.53961        2.83061        0.83079
H          5.69263        2.68489        2.24939
H          6.17350        1.18654        1.45394
H          7.27669        1.43720        3.69042
H          3.85904        0.10074        4.75605
H          6.25500       -0.00145        3.62842
C          5.42385        1.59438        4.82697
H          5.50176        2.69322        4.89753
H          5.84301        1.19197        5.76203
