6
TRANS-1,2-DICHLOROETHYLENE.gamout	Energy:    -997.3022997
C          2.30040        1.69723        1.28210
C          1.63084        0.70111        0.70455
H          1.85454        2.40155        1.98369
Cl         3.99048        1.97181        0.96073
H          2.07669       -0.00321        0.00297
Cl        -0.05926        0.42658        1.02589
