24
TRANS-1-METHYL-3-ETHYLCYCLOPENTANE.gamout	Energy:    -314.0607029
C          4.34552        1.34378        0.96285
C          2.85881        1.27158        1.32021
C          2.51693        1.79653        2.71751
C          3.13452        0.99187        3.88900
C          1.01208        1.80328        3.04363
C          2.14892        1.11256        5.09429
C          0.97220        1.97374        4.56666
C          2.78809        1.66532        6.36912
H          4.71809        2.37859        1.01936
H          4.95565        0.73314        1.64504
H          4.52604        0.97951       -0.05898
H          2.27940        1.84200        0.57525
H          2.50927        0.22731        1.24395
H          2.87675        2.83920        2.79051
H          3.24852       -0.06374        3.59545
H          4.14088        1.34986        4.14966
H          0.46302        2.58586        2.49991
H          0.56806        0.83361        2.75771
H          1.75938        0.10740        5.32162
H          1.14484        3.03252        4.82319
H          0.00998        1.68668        5.01427
H          3.22014        2.66261        6.18850
H          3.59558        1.01046        6.72928
H          2.04903        1.76289        7.17884
