24
TRANS-4-OCTENE.gamout	Energy:    -314.0380630
C          4.43998        1.71026        1.00533
C          3.69779        2.09606        2.05005
C          2.37776        2.81413        1.96448
C          5.75257        0.96546        1.02930
C          1.20973        2.04959        2.61911
C          6.45362        0.81068        2.38585
C          0.84992        0.74014        1.91425
C          7.06490        2.10566        2.93183
H          4.05910        1.93396        0.00117
H          4.04845        1.88338        3.06631
H          2.46916        3.79499        2.46321
H          2.13847        3.02089        0.90826
H          5.57737       -0.03609        0.59591
H          6.44341        1.45851        0.32144
H          1.46261        1.84322        3.67306
H          0.32775        2.70960        2.64058
H          5.74850        0.38782        3.11994
H          7.25287        0.06116        2.27472
H          0.54171        0.92438        0.87304
H          1.70733        0.05208        1.88859
H          0.02026        0.23036        2.42542
H          7.82739        2.49679        2.24013
H          6.30826        2.89084        3.06544
H          7.55153        1.93432        3.90343
