27
TRANS-1-METHYL-4-ETHYLCYCLOHEXANE.gamout	Energy:    -353.3285418
C          3.14242        1.99217        2.14926
C          3.90566        2.12454        3.47953
C          4.04326        2.44228        0.98606
C          5.25262        1.39073        3.45613
C          5.38904        1.70823        0.96366
C          6.15059        1.84234        2.29299
H          2.91675        0.91853        1.99938
H          4.07690        3.19699        3.68324
H          3.29621        1.74476        4.31212
H          4.22259        3.52854        1.07580
H          3.51870        2.29337        0.02908
H          5.77588        1.53849        4.41397
H          5.07320        0.30449        3.36491
H          6.01067        2.08431        0.13574
H          5.21689        0.63615        0.75976
H          6.37201        2.91605        2.44159
C          1.80664        2.75398        2.14356
C          0.76227        2.24185        3.13924
C          7.48078        1.08474        2.26836
H          1.38397        2.70270        1.12660
H          2.00685        3.82270        2.33446
H         -0.18511        2.78958        3.03188
H          0.55018        1.17379        2.97517
H          1.09271        2.36061        4.18109
H          8.12565        1.43610        1.44920
H          8.03355        1.21370        3.21091
H          7.31315        0.00548        2.12375
