14
TRANS-2-BUTENE-1,4-DIOL.gamout	Energy:    -307.2746142
C          0.98334       -0.20538       -0.12141
C          0.35352        0.62928       -1.20095
C         -0.74692        1.37669       -1.04392
C         -1.37668        2.21137       -2.12348
O          2.34515        0.14237        0.11109
O         -2.73851        1.86367       -2.35602
H          0.39098       -0.13850        0.80831
H          1.00774       -1.26368       -0.42386
H          0.87220        0.62136       -2.16701
H         -1.26557        1.38464       -0.07785
H         -0.78432        2.14445       -3.05319
H         -1.40107        3.26966       -1.82105
H          2.39710        1.07492        0.35256
H         -2.79048        0.93111       -2.59749
