12
TRANS-2-BUTENE.gamout	Energy:    -157.0069440
C          1.96529        0.92743        0.88117
C          2.96068        1.65875        1.39545
C          4.42371        1.33930        1.28834
C          0.50219        1.24627        0.98898
H          2.22062        0.01356        0.32993
H          2.70534        2.57260        1.94672
H          4.59408        0.41599        0.71591
H          4.97584        2.15518        0.79285
H          4.87864        1.21159        2.28482
H          0.04513        1.36677       -0.00740
H         -0.04808        0.43309        1.49102
H          0.33195        2.17308        1.55578
