16
TRANS-1,4-HEXADIENE.gamout	Energy:    -234.2950652
C          4.25023        3.14775        0.70285
C          3.84404        3.38346        1.95318
C          3.91154        2.39822        3.09464
C          2.56596        2.13238        3.72538
C          1.97664        0.93465        3.80770
C          0.64004        0.66104        4.43303
H          4.67591        2.18380        0.41159
H          4.17278        3.91035       -0.07416
H          3.41958        4.36497        2.19578
H          4.35910        1.45428        2.74793
H          4.58892        2.80877        3.86831
H          2.04640        3.00629        4.13818
H          2.50068        0.06690        3.38849
H          0.18019        1.57961        4.82450
H         -0.05468        0.21366        3.70283
H          0.72916       -0.05860        5.26383
