24
TRANS-1,3-DIMETHYLCYCLOHEXANE.gamout	Energy:    -314.0677974
C          1.00025        3.34397        2.98519
C          1.52234        1.91258        3.18536
C          2.96164        1.88100        3.74176
C          1.42678        1.06349        1.89959
C          4.04090        2.25776        2.71052
C          2.49372        1.43322        0.85965
C          5.44585        2.17688        3.31418
C          3.90388        1.37325        1.45977
H          1.03620        3.91019        3.92804
H         -0.04461        3.33469        2.64086
H          1.58617        3.90384        2.24272
H          0.87302        1.43915        3.94096
H          3.17988        0.86317        4.11012
H          3.03343        2.54697        4.61666
H          0.41943        1.15683        1.46429
H          1.55175        0.00063        2.16846
H          3.86943        3.30366        2.39927
H          2.42419        0.75686       -0.00607
H          2.30471        2.44791        0.47175
H          5.67407        1.14904        3.63860
H          5.54262        2.83336        4.19167
H          6.21268        2.47485        2.58384
H          4.13264        0.32980        1.74402
H          4.65468        1.66171        0.70754
