24
TRANS-1,2-DIMETHYLCYCLOHEXANE.gamout	Energy:    -314.0691868
C          2.92867        2.32178        0.94503
C          1.64495        1.49152        0.85305
C          0.87909        1.51598        2.17976
C          3.84496        1.89066        2.10592
C          3.07121        1.90476        3.44852
C          5.11220        2.75301        2.13364
C          1.77677        1.07630        3.34016
C          3.91478        1.42291        4.63433
H          3.48855        2.26262       -0.00175
H          2.66473        3.38619        1.08132
H          1.01094        1.86203        0.03275
H          1.90321        0.44784        0.60165
H          0.51487        2.54051        2.37086
H         -0.01281        0.87278        2.12407
H          4.14953        0.84316        1.91803
H          2.77899        2.95478        3.64237
H          4.86874        3.79727        2.38803
H          5.84826        2.39190        2.86372
H          5.60192        2.75756        1.14859
H          2.04906        0.01344        3.20831
H          1.22327        1.13647        4.29068
H          4.78125        2.07026        4.82428
H          3.31412        1.40143        5.55556
H          4.28976        0.40184        4.45784
