13
TRANS-1,3-PENTADIENE.gamout	Energy:    -195.0455131
C          2.08665        1.77031        0.90823
C          3.41168        1.16280        0.93078
C          4.56515        1.85537        0.88377
C          0.92937        1.08845        0.95374
C          5.93895        1.25860        0.90553
H          2.05709        2.86422        0.84967
H          3.44849        0.06857        0.99001
H          4.51210        2.94913        0.82463
H          0.91174       -0.00294        1.01267
H         -0.03458        1.59838        0.93367
H          6.50734        1.53822        0.00249
H          5.90378        0.16145        0.96239
H          6.51947        1.62875        1.76749
