10
TRANS-CROTONITRILE.gamout	Energy:    -209.8778024
C          0.80058        3.06164        0.86250
C          2.14142        2.40372        0.81831
C          2.34150        1.07415        0.78343
C          3.64312        0.48049        0.74197
N          4.68866       -0.02355        0.70826
H          0.70721        3.69041        1.76294
H          0.66938        3.73190       -0.00257
H         -0.01648        2.32746        0.86287
H          3.01645        3.06114        0.81443
H          1.49630        0.37944        0.78566
