15
TRANS-1,2-DIMETHYLCYCLOPROPANE.gamout	Energy:    -196.2554379
C          1.88929        1.98972        2.90663
C          0.91775        1.64551        4.01545
C          2.00695        1.13013        1.67380
C          1.39293        2.50881        1.57638
C          3.35454        0.83748        1.04886
H          2.83014        2.42700        3.25620
H          0.64400        2.53884        4.59824
H         -0.01084        1.21693        3.60908
H          1.34954        0.90872        4.71101
H          1.29602        0.29966        1.62111
H          0.31341        2.58548        1.43049
H          1.96823        3.29060        1.07579
H          3.25582        0.59785       -0.02133
H          4.02347        1.70682        1.13524
H          3.84753       -0.01497        1.54204
