24
TRANS-3-OCTENE.gamout	Energy:    -314.0395126
C          5.36289        1.69417        1.85014
C          3.98468        2.11638        1.41965
C          3.43451        3.30060        2.23560
C          6.45397        1.72095        1.07471
C          2.03140        3.76733        1.82176
C          7.85364        1.31777        1.46131
C          0.91296        2.75496        2.08615
C          8.04668        0.82798        2.89595
H          5.45223        1.35271        2.88731
H          3.99669        2.38465        0.35027
H          3.29885        1.25750        1.51968
H          3.42729        3.02988        3.30623
H          4.13730        4.14364        2.13911
H          6.34001        2.06807        0.04048
H          1.80334        4.69955        2.36301
H          2.03992        4.03292        0.75067
H          8.19470        0.53689        0.75778
H          8.52416        2.17569        1.27271
H          1.04429        1.83192        1.50279
H         -0.06862        3.17345        1.81919
H          0.87819        2.47449        3.15077
H          7.76838        1.60323        3.62547
H          7.43382       -0.06239        3.10182
H          9.09731        0.56054        3.07485
