26
TRANS-STILBENE.gamout	Energy:    -539.9973914
C          5.32085        2.72949        1.89930
C          4.61601        3.54713        2.71202
C          3.33596        4.20071        2.41312
C          6.60087        2.07451        2.19581
C          2.79299        5.10332        3.35149
C          2.60855        3.97169        1.22521
C          7.23335        2.14124        3.45611
C          7.24147        1.33664        1.17846
C          1.58108        5.75513        3.11453
C          1.39948        4.62217        0.98858
C          8.45264        1.50541        3.68049
C          8.46329        0.69927        1.40330
C          0.87770        5.51871        1.93019
C          9.07671        0.78141        2.65632
H          4.92899        2.52062        0.89970
H          5.01921        3.77648        3.70255
H          3.33650        5.29446        4.27957
H          2.98952        3.27219        0.48049
H          6.76391        2.69131        4.27231
H          6.76954        1.26819        0.19567
H          1.18515        6.44977        3.85811
H          0.85587        4.42660        0.06208
H          8.92072        1.57151        4.66475
H          8.93695        0.13628        0.59651
H         -0.07049        6.02521        1.74122
H         10.03119        0.28378        2.83717
