22
TRANS-3-METHYLCYCLOHEXANOL.gamout	Energy:    -349.9470398
C          2.49542        2.60243       -0.10635
C          0.96158        2.62803       -0.08830
C          3.03572        1.17362        0.05420
C          0.40906        1.97277        1.17542
C          0.94904        0.54521        1.33400
C          3.12906        0.99302        2.61082
C          2.49163        0.46649        1.31449
O         -1.01456        1.98861        1.07325
H          2.86448        3.03877       -1.04644
H          2.88527        3.24488        0.70017
H          0.58047        3.65697       -0.16185
H          0.56454        2.07707       -0.95727
H          4.13660        1.18159        0.07560
H          2.74551        0.58586       -0.83273
H          0.71293        2.58101        2.04801
H          0.56181        0.10222        2.26706
H          0.53881       -0.05374        0.50479
H          4.21979        0.85183        2.59373
H          2.93833        2.06369        2.76950
H          2.73596        0.45528        3.48634
H          2.75946       -0.60002        1.23768
H         -1.40228        1.56848        1.84900
