22
TRANS-2-METHYLCYCLOHEXANOL.gamout	Energy:    -349.9499529
C         -1.75184        0.66019       -1.28415
C         -0.85128        0.53744       -0.05191
C         -0.06526       -0.78267       -0.03860
C          0.11857        1.72891        0.06305
C          1.81437        0.30566        1.28616
C          0.85373       -0.88588        1.18455
C          1.04306        1.63114        1.28208
O         -1.00891       -1.85244       -0.06955
H         -2.33014        1.59514       -1.25062
H         -1.15086        0.67156       -2.20769
H         -2.45548       -0.17859       -1.34914
H         -1.49180        0.52629        0.84836
H          0.55708       -0.81683       -0.95615
H         -0.46207        2.66334        0.09706
H          0.72992        1.77912       -0.85550
H          2.43149        0.21686        2.19290
H          2.51182        0.28795        0.43084
H          1.41930       -1.83154        1.13962
H          0.21801       -0.93691        2.08386
H          1.74203        2.48142        1.29797
H          0.44015        1.70313        2.20334
H         -0.54379       -2.69600       -0.05803
