23
TRI-(ETHYL)-AMMONIUM+1.gamout	Energy:    -292.3974688
N         -2.82835        0.36492       -0.06280
C         -1.31426        0.41637       -0.17756
H         -3.16363        0.15913       -1.00962
C         -3.42224        1.70812        0.32026
C         -3.34001       -0.75257        0.82130
H         -2.79456        2.46894       -0.15826
H         -3.30755        1.80529        1.40575
C         -4.87240        1.86916       -0.11257
C         -2.92970       -2.13769        0.34850
H         -4.43004       -0.65321        0.82629
H         -2.98205       -0.53634        1.83418
H         -1.10621        1.21048       -0.90409
H         -1.00378       -0.53270       -0.62781
C         -0.59297        0.66650        1.13552
H         -4.99068        1.73963       -1.19858
H         -5.18631        2.89240        0.12743
H         -5.56111        1.19096        0.40687
H         -0.88645        1.61202        1.60808
H          0.48121        0.73092        0.92091
H         -0.72897       -0.15096        1.85449
H         -3.18856       -2.30333       -0.70753
H         -3.48156       -2.87942        0.93823
H         -1.86061       -2.34160        0.48941
