29
TRIACETIN.gamout	Energy:    -801.8131795
C         -1.33070        0.78416        1.55379
O         -1.35092        1.30663        2.89722
C         -2.22976        1.64377        0.67155
C          0.13953        0.81186        1.12950
C         -2.12614        0.70325        3.83012
O         -2.80920       -0.26687        3.60950
C         -1.99847        1.39567        5.16214
O         -3.59145        1.56896        1.11036
O          0.32780        0.08624       -0.09190
C         -4.33361        0.52483        0.66864
C         -5.68277        0.49466        1.33272
O         -3.92973       -0.27278       -0.14385
C          0.46512        0.78061       -1.24594
C          0.65717       -0.13223       -2.42914
O          0.42574        1.98686       -1.30293
H         -1.69774       -0.24935        1.56286
H         -2.15455        1.32125       -0.37283
H         -1.94683        2.69928        0.75114
H          0.73705        0.29346        1.88791
H          0.50277        1.84092        1.01464
H         -2.76625        1.01953        5.84485
H         -2.08704        2.48295        5.03861
H         -1.00345        1.19188        5.58426
H         -6.11110        1.50288        1.39848
H         -5.54821        0.11765        2.35773
H         -6.34820       -0.17749        0.78215
H          1.54605        0.19275       -2.98521
H         -0.20941       -0.02283       -3.09603
H          0.75615       -1.17965       -2.12649
