6
TRICHLOROETHYLENE.gamout	Energy:   -1456.7070987
C          1.38471        1.10555        0.05726
C          2.60032        1.66522        0.09975
Cl         4.02240        0.66097        0.06615
Cl         2.89429        3.36503        0.18848
Cl        -0.09769        1.99437        0.08459
H          1.27039        0.02414        0.00169
