8
TRICHLOROACETIC_ACID.gamout	Energy:   -1607.0155750
Cl         0.84317       -1.67460       -0.20601
Cl         1.18124        0.94804       -1.44764
Cl         1.19785        0.71950        1.46466
O         -1.58868        0.97296       -0.89632
O         -1.67863       -0.30243        0.95224
C          0.48859        0.07671       -0.05198
C         -1.06089        0.22149        0.06948
H         -2.54846        1.01472       -0.75246
