7
TRICHLOROACETYL_CHLORIDE.gamout	Energy:   -1991.2665648
Cl         0.94093        0.69722       -0.85978
Cl        -1.96452        0.98993       -0.80620
Cl        -0.37915        1.45987        1.63148
Cl        -2.10534       -1.35313        1.51709
O          0.07944       -1.86489        0.19384
C         -0.52081        0.49056        0.13083
C         -0.67379       -1.01640        0.52068
