25
TRIETHANOLAMINE.gamout	Energy:    -517.4133478
O          0.22868       59.68955       -0.40828
C          1.47880       59.05572       -0.16941
C          2.48249       60.15235        0.17738
N          3.82809       59.63826        0.40104
C          4.88837       60.61038        0.17079
C          3.97989       58.85647        1.62927
O          7.25855       60.92254       -0.36168
C          6.23367       59.95910       -0.16839
O          4.35075       56.61224        2.55817
C          4.27218       57.37447        1.36231
H         -0.44359       59.02942       -0.60498
H          1.39305       58.32918        0.65772
H          1.83293       58.51422       -1.06410
H          2.50862       60.85263       -0.66861
H          2.09662       60.72084        1.04991
H          4.59248       61.24279       -0.67979
H          5.03955       61.29032        1.03689
H          3.06929       58.92057        2.24757
H          4.79198       59.27678        2.25046
H          7.06722       61.44963       -1.14588
H          6.58006       59.32764        0.66130
H          6.11501       59.30908       -1.05229
H          5.12329       56.88035        3.06886
H          5.19068       57.27194        0.75958
H          3.45318       56.93724        0.77617
