22
TRIETHYLALUMINUM.gamout	Energy:    -479.6620914
Al         2.06471       -1.13395       -0.30709
C          3.99608       -0.70171       -0.19286
C          0.72600        0.28724       -0.65947
C          1.49086       -3.01389       -0.04656
C          4.46454        0.62863       -0.81142
C          0.16367        0.93969        0.62481
C          2.32474       -3.87487        0.92200
H          4.27054       -0.72317        0.88025
H          4.57060       -1.54107       -0.62638
H          1.17441        1.07177       -1.29370
H         -0.11207       -0.12705       -1.24748
H          0.42501       -3.04410        0.24062
H          1.51658       -3.47916       -1.05242
H          5.54117        0.80431       -0.65624
H          4.28503        0.65536       -1.89743
H          3.93071        1.49009       -0.38095
H          0.95733        1.41547        1.22281
H         -0.57790        1.72408        0.40085
H         -0.33781        0.20432        1.27412
H          1.98523       -4.92302        0.94583
H          3.38992       -3.88656        0.64311
H          2.26887       -3.49687        1.95501
