22
TRIETHYLAMINE.gamout	Energy:    -292.0132812
N          0.01351        0.01913        0.03591
C          1.45590       -0.20818        0.06044
C         -0.34454        1.42172       -0.15288
C         -0.67992       -0.60220        1.16016
C          1.85827       -1.60199       -0.41797
C         -0.19881        1.89381       -1.59757
C         -2.13124       -0.96054        0.84611
H          1.87304       -0.01885        1.07499
H          1.92929        0.53182       -0.59831
H          0.24007        2.07982        0.52817
H         -1.39514        1.54387        0.14083
H         -0.63368        0.04293        2.06588
H         -0.14453       -1.52463        1.42048
H          2.95196       -1.71625       -0.39349
H          1.50972       -1.76095       -1.44790
H          1.42971       -2.39764        0.20857
H         -0.49554        2.94903       -1.68813
H         -0.83800        1.28832       -2.25483
H          0.83437        1.80989       -1.96340
H         -2.59277       -1.47824        1.69926
H         -2.17112       -1.62071       -0.03104
H         -2.74292       -0.07272        0.63027
