6
TRIFLUOROACETONITRILE.gamout	Energy:    -429.9797340
C          1.14334        0.93587        1.20696
C          2.57188        1.01319        0.79934
F          2.80402        2.15198        0.13920
F          2.88234       -0.01386        0.00235
F          3.36347        0.97380        1.87559
N          0.03465        0.87624        1.52366
