21
TRIFLUOROMETHYLCYCLOHEXANE.gamout	Energy:    -572.2449303
C         -3.98931        0.96569        1.20030
C         -5.10947        2.01138        1.26966
C         -5.40481        2.60255       -0.11476
C         -5.72258        1.51157       -1.14616
C         -4.59144        0.46710       -1.21166
C         -4.30035       -0.13433        0.17719
C         -4.88682       -0.61653       -2.23629
F         -5.07588       -0.10419       -3.47392
F         -5.99616       -1.32744       -1.93349
F         -3.87023       -1.50357       -2.33890
H         -3.82301        0.51280        2.18883
H         -3.04387        1.46268        0.92227
H         -6.02459        1.53718        1.66471
H         -4.84258        2.81121        1.97653
H         -6.24383        3.31172       -0.05774
H         -4.53024        3.18089       -0.45897
H         -6.66101        1.00494       -0.86921
H         -5.88166        1.95848       -2.13699
H         -3.67633        0.95829       -1.58391
H         -5.17972       -0.70712        0.51203
H         -3.46265       -0.84223        0.11380
