9
TRIFLUOROPROPENE.gamout	Energy:    -415.1708158
C         39.98757       19.87986       -0.25377
C         38.50386       19.98424       -0.05902
F         38.17272       21.14955        0.54399
F         37.85367       19.96587       -1.24570
F         37.99799       18.98784        0.69007
C         40.73042       18.90128        0.25989
H         40.41236       20.68367       -0.85895
H         41.80684       18.87008        0.08948
H         40.28959       18.10648        0.86259
