6
TRIFLUOROETHYLENE.gamout	Energy:    -375.8772911
C         32.01197       18.01260        0.00000
C         30.68128       17.99511       -0.00000
F         29.94794       19.09508       -0.00000
F         29.93753       16.90876        0.00000
F         32.71211       16.86847       -0.00000
H         32.59448       18.93116        0.00000
