5
TRIFLUOROCHLOROMETHANE.gamout	Energy:    -797.2805825
Cl         2.46547        0.02134        0.04057
C          1.23386        0.62276        1.17478
F          1.37773        0.03645        2.35974
F          1.35732        1.93776        1.32952
F          0.01594        0.35811        0.71099
