20
TRIMETHYL_GLYCINIUM+1.gamout	Energy:    -402.2212639
O          2.47741       -0.61530        0.74254
O          1.62598        0.49287       -1.02604
N         -1.07916       -0.03006       -0.06981
C          0.15850       -0.50236        0.64729
C         -1.16984       -0.62710       -1.45048
C         -2.26685       -0.48955        0.73185
C         -1.11623        1.47323       -0.16193
C          1.49116       -0.13126       -0.00608
H          0.10523       -1.59488        0.73497
H          0.14018       -0.09179        1.66458
H         -1.12887       -1.71749       -1.36398
H         -2.12512       -0.32533       -1.88977
H         -0.33952       -0.25577       -2.05391
H         -2.21299       -0.05207        1.73356
H         -3.17796       -0.15458        0.22759
H         -2.25741       -1.58201        0.79661
H         -1.04256        1.88769        0.84852
H         -0.28297        1.81100       -0.78043
H         -2.06996        1.76112       -0.61303
H          3.34079       -0.39535        0.35056
