13
TRIMETHYLENE_DICYANIDE.gamout	Energy:    -303.2237606
C          1.27015       -0.74488        0.00000
C         -0.00000        0.12520        0.00000
C         -1.27015       -0.74488       -0.00000
C         -2.50056        0.05004       -0.00000
N         -3.46672        0.68785       -0.00000
C          2.50056        0.05005       -0.00000
N          3.46672        0.68785       -0.00000
H          1.28819       -1.40309        0.88401
H          1.28819       -1.40309       -0.88401
H         -0.00001        0.77876        0.88332
H         -0.00001        0.77876       -0.88331
H         -1.28819       -1.40309       -0.88401
H         -1.28820       -1.40309        0.88401
