10
TRIMETHYLENESULFIDE.gamout	Energy:    -515.7649767
C          0.66777        1.35389        0.80933
C          1.74035        2.44544        1.01281
C          2.96760        1.52532        0.83605
S          1.92147        0.00606        1.08953
H         -0.16157        1.34604        1.52708
H          0.26632        1.31296       -0.21273
H          1.68593        3.29191        0.31201
H          1.69887        2.84345        2.03608
H          3.39467        1.54648       -0.17619
H          3.77165        1.64019        1.57313
