13
TRIMETHYL_ALUMINUM.gamout	Energy:    -361.9053489
C         -0.97141       -0.06145       -0.00216
Al         1.00010       -0.09813       -0.00071
C          1.98439       -0.06515        1.70769
C          1.98746       -0.05807       -1.70716
H         -1.40900       -0.53931       -0.89418
H         -1.33968        0.98138       -0.00024
H         -1.41022       -0.54298        0.88728
H          1.43127       -0.53844        2.53559
H          2.17060        0.97939        2.01894
H          2.97337       -0.54757        1.64220
H          1.43586       -0.52764       -2.53821
H          2.97621       -0.54096       -1.64182
H          2.17446        0.98775       -2.01358
