29
TRIS-(2-HYDROXYETHYL)-METHYLAMMONIUM+1.gamout	Energy:    -557.0441831
N         -1.04761        2.03402       -0.37278
C         -0.83791        3.12893       -1.38731
H          0.17520        3.06821       -1.78560
H         -0.96434        4.09986       -0.90406
H         -1.57761        2.99662       -2.18246
C         -2.51730        2.02596        0.03762
C         -0.19927        2.25099        0.86819
C         -0.70339        0.71943       -1.07151
C         -3.11196        3.38165        0.44547
H         -2.62178        1.32156        0.86513
H         -3.07381        1.61619       -0.81072
C          1.31232        2.31520        0.69154
H         -0.45700        1.44332        1.55981
H         -0.53335        3.19355        1.30834
C         -0.72132       -0.56498       -0.25334
H          0.29702        0.84873       -1.49752
H         -1.41594        0.63622       -1.89892
O         -4.28578        3.03607        1.14540
H         -3.34112        3.99579       -0.44055
H         -2.42449        3.95952        1.08902
H         -4.83668        3.81205        1.29974
O          1.65544        3.49889       -0.00061
H          1.71276        1.42138        0.18296
H          1.72083        2.31150        1.71532
H          2.58715        3.71288        0.12306
O         -2.02770       -0.83621        0.20203
H         -0.00270       -0.52793        0.58315
H         -0.36103       -1.34478       -0.94577
H         -2.11215       -1.75354        0.48849
