16
VALERALDEHYDE.gamout	Energy:    -271.4184091
C          1.85040        1.10490        4.49208
C          1.94936        1.74884        3.11147
C          1.04641        1.07985        2.06994
C          2.71711        1.72548        5.55960
C          1.13892        1.72573        0.68603
O          3.45138        2.67069        5.39642
H          0.81285        1.12468        4.87667
H          2.10998        0.02959        4.45898
H          1.69666        2.81794        3.19269
H          2.99756        1.71648        2.77439
H          1.30794        0.01047        1.99372
H          0.00062        1.11100        2.42074
H          2.64007        1.24044        6.56594
H          0.83825        2.78411        0.72010
H          2.16822        1.68481        0.29790
H          0.48723        1.21498       -0.03732
