19
VALINE.gamout	Energy:    -401.8758763
C          0.32044        1.86853        0.17760
C         -0.03950        1.30680       -1.20336
C          1.70706        1.36270        0.68062
C          0.17638        3.39317        0.23862
C          2.81259        1.65429       -0.32985
O          3.46823        0.55516       -0.75760
O          3.10769        2.76326       -0.70914
N          1.62011       -0.05673        1.00007
H          0.09265        0.21742       -1.23095
H          0.58738        1.75671       -1.98852
H         -1.08646        1.53518       -1.44769
H          0.39542        3.77748        1.24622
H         -0.85311        3.68274       -0.01657
H          0.85765        3.88908       -0.46468
H          4.15108        0.85130       -1.38028
H          1.02375       -0.21386        1.80665
H          2.52416       -0.48309        1.17463
H          1.98001        1.99233        1.55083
H         -0.39362        1.44211        0.90377
