19
VANILLATE-1.gamout	Energy:    -609.2965879
C          4.99585       -2.65626       -0.00460
O          4.85946       -3.90500        0.03007
O          6.04951       -1.97734        0.00112
C          3.67457       -1.84479       -0.06316
C          2.44816       -2.52547       -0.10865
C          1.24673       -1.82367       -0.16216
C          1.24343       -0.41753       -0.17310
C          2.45622        0.26631       -0.12564
C          3.66136       -0.44656       -0.07091
C         -0.07812       -3.80799       -0.21484
O         -0.01482       -2.39974       -0.20789
O          0.05024        0.26533       -0.23126
H          0.44694       -4.22376       -1.09051
H          2.50040       -3.61373       -0.09737
H          4.62263        0.06664       -0.03109
H          2.44076        1.35948       -0.13343
H         -0.65266       -0.39856       -0.25701
H          0.37698       -4.22957        0.69638
H         -1.14064       -4.07978       -0.25694
