6
VINYL_FLUORIDE.gamout	Energy:    -177.6166804
C          2.16331        1.96741        0.09197
C          0.99381        1.34219        0.05026
F          0.89855       -0.00237        0.06606
H          3.10440        1.41879        0.14112
H          2.18527        3.05638        0.07676
H          0.01362        1.81972        0.00039
