6
VINYL_CHLORIDE.gamout	Energy:    -537.8933700
C          1.81066        0.90297        0.75500
C          0.75430        0.81353        1.55750
Cl         0.39360        1.98072        2.81202
H          2.53086        1.71839        0.82579
H          1.97022        0.13621       -0.00502
H          0.01853        0.01042        1.50985
