10
VINYLACETONITRILE.gamout	Energy:    -209.8683434
C         30.02135       -0.00683        0.25748
C         29.14593        1.22650        0.32831
C         31.37654        0.28165       -0.23089
N         32.44337        0.52191       -0.61115
C         27.97494        1.34625       -0.29816
H         30.12041       -0.46256        1.25822
H         29.56600       -0.76534       -0.39757
H         29.52515        2.04504        0.94697
H         27.37196        2.25029       -0.20114
H         27.57479        0.54893       -0.92940
