22
VINYLCYCLOHEXANE.gamout	Energy:    -312.8414497
C         -0.62778        0.00001       -0.17307
C          0.14634       -1.26648        0.25561
C          0.14645        1.26649        0.25544
C          1.58937       -1.26626       -0.26623
C          1.58948        1.26606       -0.26640
C          2.34486       -0.00011        0.15770
C         -2.02772        0.00011        0.37840
C         -3.15257        0.00008       -0.34321
H         -0.69467       -0.00006       -1.27593
H         -0.38972       -2.16171       -0.09363
H          0.15728       -1.32017        1.35870
H          0.15739        1.32035        1.35852
H         -0.38951        2.16172       -0.09395
H          1.57572       -1.32845       -1.36829
H          2.11745       -2.16509        0.08821
H          2.11765        2.16489        0.08791
H          1.57584        1.32810       -1.36847
H          2.46423       -0.00004        1.25540
H          3.36134       -0.00018       -0.26555
H         -2.10061        0.00019        1.47352
H         -4.13622        0.00014        0.12939
H         -3.13010        0.00001       -1.43647
