20
XYLOSE.gamout	Energy:    -571.9687908
O         -2.80947        1.71442        1.40026
C         -1.84862        1.61421        0.67082
C         -1.38721        0.26793        0.15692
O         -2.24609       -0.75056        0.61248
C          0.06528       -0.06924        0.59190
O          0.30954       -1.44098        0.33673
C          1.12893        0.72854       -0.17935
O          1.03341        0.47459       -1.56814
C          2.53269        0.45684        0.36560
O          3.40592        1.44708       -0.14924
H         -1.27407        2.50871        0.34453
H         -1.40320        0.30952       -0.94811
H         -2.90865       -0.33976        1.19377
H          0.16595        0.13324        1.67487
H         -0.48881       -1.93412        0.57565
H          0.93963        1.80631       -0.05940
H          1.04180       -0.48451       -1.69566
H          2.84429       -0.55741        0.06636
H          2.50762        0.49322        1.47092
H          4.32178        1.17832       -0.02776
