10
1,1,1-TRICHLOROACETONE.gamout	Energy:   -1571.0809392
Cl         1.10046       -0.95027       -1.45356
Cl         1.03108       -0.97803        1.49319
Cl         1.47401        1.52738        0.05246
O         -1.37709        1.30971       -0.01619
C          0.62266       -0.02510        0.01826
C         -0.93958        0.19293       -0.01649
C         -1.80127       -1.04831       -0.04980
H         -2.85274       -0.73494       -0.07227
H         -1.57086       -1.65499       -0.93796
H         -1.61496       -1.67479        0.83505
