8
1,1,1,2-TETRACHLOROETHANE.gamout	Energy:   -1917.2977433
Cl        -0.24940       -1.46513       -0.96751
C         -0.38333       -0.00000        0.05147
C          0.67699        0.00000        1.15707
Cl         2.35514        0.00000        0.54147
Cl        -0.24940        1.46512       -0.96751
Cl        -1.98638       -0.00000        0.88378
H          0.53653        0.89811        1.77259
H          0.53653       -0.89811        1.77259
