11
1,1,1,3,3,3-HEXAFLUOROPROPANE.gamout	Energy:    -713.7769547
C         -4.38563        2.68939        0.04727
C         -3.75777        4.05218       -0.19530
C         -2.25884        4.13462        0.04517
H         -4.25156        4.77881        0.46503
H         -3.95275        4.33841       -1.23833
F         -5.70452        2.75385       -0.20063
F         -4.22997        2.28202        1.31404
F         -3.86612        1.74886       -0.75238
F         -1.83322        5.38447       -0.20315
F         -1.93825        3.83946        1.31163
F         -1.57625        3.30560       -0.75540
