8
1,1,2-TRICHLOROTRIFLUOROETHANE.gamout	Energy:   -1755.2840330
C          0.46810        0.94895        0.00511
Cl        -0.42563        2.48640        0.03050
C          2.01378        1.20887       -0.00315
Cl         0.05393       -0.03867        1.43418
F          0.15249        0.26444       -1.10200
F          2.64741        0.03276        0.03619
Cl         2.51072        2.08001       -1.47638
F          2.35760        1.91294        1.07471
