8
1,1,1-TRIFLUOROETHANE.gamout	Energy:    -377.1187239
F         -0.44107        0.01767        1.25104
C          0.05298        0.00000       -0.00033
C          1.55881        0.00009        0.00064
F         -0.44215       -1.09243       -0.61025
F         -0.44199        1.07469       -0.64108
H          1.92495       -0.88930        0.53167
H          1.92687       -0.01460       -1.03443
H          1.92432        0.90431        0.50641
