11
1,1,1,2,2-PENTAFLUOROPROPANE.gamout	Energy:    -614.6317189
C         -1.34743       -0.62548        0.30337
C          0.10336       -0.55107       -0.10487
C          0.70682        0.87118       -0.03769
F          0.86538       -1.34074        0.69753
F          0.26240       -0.99056       -1.38135
F          0.03248        1.69813       -0.84776
F          1.98664        0.86984       -0.40315
F          0.61975        1.34747        1.21159
H         -1.67485       -1.67189        0.22626
H         -1.95884       -0.00038       -0.36144
H         -1.46393       -0.28153        1.33996
