24
1,1,2-TRIMETHYLCYCLOPENTANE.gamout	Energy:    -314.0353740
C          0.69337        2.92538        1.29177
C          1.89462        2.09713        1.76812
C          1.42220        0.64596        1.99722
C          2.58061        2.63399        3.06934
C          3.06310        2.11929        0.74755
C          2.69976        4.16253        3.14585
C          3.97278        1.95451        3.04551
C          4.34503        1.77955        1.54649
H          0.97018        3.96259        1.04786
H         -0.10313        2.95735        2.05489
H          0.25783        2.48033        0.38135
H          2.23806       -0.01457        2.32993
H          1.01261        0.21854        1.06679
H          0.62854        0.60451        2.76222
H          2.00668        2.30026        3.95233
H          2.88141        1.42768       -0.09176
H          3.14285        3.12656        0.30555
H          3.24941        4.58123        2.28568
H          3.24993        4.45583        4.05502
H          1.71608        4.65559        3.18622
H          4.72094        2.54211        3.60159
H          3.92394        0.97409        3.54462
H          4.68540        0.75125        1.34608
H          5.17851        2.43784        1.25452
