27
1,1,3-TRIMETHYLCYCLOHEXANE.gamout	Energy:    -353.3043976
C         -0.27781       -1.19616        0.88529
C         -1.31328       -0.74101       -0.15709
C         -1.13727        0.75799       -0.46304
C          0.29362        1.18052       -0.88394
C          1.30256        0.64946        0.16571
C          1.15563       -0.84786        0.46703
H         -0.50486       -0.70138        1.84975
H         -0.37415       -2.28132        1.06480
H         -1.12222       -1.30884       -1.08712
C         -2.74541       -1.05319        0.29016
H         -1.85418        1.06702       -1.24532
H         -1.41321        1.32654        0.44574
C          0.63412        0.64291       -2.28957
C          0.37132        2.71742       -0.92516
H          2.33196        0.87481       -0.16548
H          1.15182        1.21202        1.10591
H          1.86545       -1.14012        1.25987
H          1.43350       -1.44269       -0.42128
H          0.13788        3.15602        0.05956
H         -0.34332        3.13313       -1.65556
H          1.38040        3.05703       -1.21330
H         -0.07520        1.03362       -3.03831
H          0.60250       -0.45556       -2.34606
H          1.64582        0.96131       -2.59149
H         -2.99499       -0.51004        1.21829
H         -2.87937       -2.12967        0.48783
H         -3.48093       -0.75685       -0.47604
