6
1,1,2,2-TETRACHLOROETHENE.gamout	Energy:   -1916.0729681
Cl        -2.66884       -3.81980       -1.83470
C         -0.93988       -3.82916       -1.83470
Cl        -0.18557       -2.27340       -1.83470
C         -0.22503       -4.97724       -1.83470
Cl         1.50394       -4.98660       -1.83470
Cl        -0.97933       -6.53300       -1.83470
