8
1,1,1-TRICHLOROETHANE.gamout	Energy:   -1457.9035340
C          2.58226        2.57387        2.44668
C          1.67179        1.61815        1.69696
Cl         2.14179        1.55485       -0.04127
Cl        -0.03854        2.17141        1.82023
Cl         1.80291       -0.03607        2.39880
H          2.49605        3.58060        2.01342
H          2.28924        2.60614        3.50597
H          3.62328        2.22944        2.36624
