8
1,1,2-TRIBROMOETHANE.gamout	Energy:   -7799.0916288
C          0.49894        0.85051        0.03247
C          2.01433        0.86447        0.04944
Br         2.75963        1.72188        1.63625
Br         2.65392       -0.99287       -0.11848
Br        -0.24978        2.66014       -0.13598
H          0.14643        0.29777       -0.84749
H          0.08340        0.40639        0.94519
H          2.42897        1.39721       -0.81179
