18
1,1,2-TRIMETHYLCYCLOPROPANE.gamout	Energy:    -235.4993104
C          2.15642        2.91941        2.50804
C          3.42331        3.05338        3.33729
C          0.88677        3.16663        3.30756
C          2.08146        1.89823        1.38591
C          2.17999        3.37293        1.06273
C          3.19537        0.92796        1.05102
H          3.44666        2.30815        4.15172
H          3.47469        4.05251        3.80366
H          4.33683        2.92388        2.73863
H         -0.01470        3.05700        2.68377
H          0.87771        4.18512        3.73383
H          0.80287        2.45371        4.14655
H          1.08275        1.46275        1.25305
H          3.13098        3.74123        0.66224
H          1.29981        3.88262        0.65708
H          3.17870        0.04845        1.71738
H          4.19104        1.38992        1.13419
H          3.09432        0.56130        0.01527
