27
1,1,2,2-TETRAMETHYLCYCLOPENTANE.gamout	Energy:    -353.2890283
C         -0.80557       -1.06215       -0.24341
C          0.75542       -1.11289        0.02665
C          1.19248        0.33844       -0.31035
C          0.01889        1.26008        0.10675
C         -1.19621        0.32533        0.33539
C          1.06367       -1.40231        1.51197
C          1.51104       -2.14691       -0.82197
C         -1.11821       -1.08556       -1.75502
C         -1.59815       -2.19856        0.42037
H          1.38420        0.42629       -1.39190
H          2.13772        0.60221        0.19176
H         -0.18696        2.01074       -0.67251
H          0.25609        1.82498        1.02197
H         -1.41207        0.23320        1.41218
H         -2.11888        0.70626       -0.13164
H          0.54612       -0.71206        2.19666
H          2.14530       -1.29625        1.69704
H          0.78283       -2.42821        1.79689
H          1.42998       -1.94478       -1.90061
H          1.14007       -3.17026       -0.64109
H          2.58451       -2.14137       -0.56884
H         -0.57795       -0.30403       -2.31202
H         -2.19551       -0.91753       -1.91876
H         -0.86766       -2.05578       -2.21219
H         -1.50860       -2.18768        1.51713
H         -1.26617       -3.18838        0.06375
H         -2.67087       -2.10883        0.17996
