8
1,1,2,2-TETRABROMOETHANE.gamout	Energy:  -10372.2110159
Br        -0.40579        1.75350        0.93447
C         -0.51300        0.56443       -0.60345
C          0.51300       -0.56443       -0.60345
Br         2.32232        0.17010       -0.82530
Br         0.40579       -1.75350        0.93448
Br        -2.32232       -0.17010       -0.82530
H         -0.34806        1.19425       -1.48479
H          0.34807       -1.19426       -1.48478
