8
1,1,1,2-TETRAFLUOROETHANE.gamout	Energy:    -476.2300919
F         -0.46399       -1.08245       -0.77814
C         -0.38804       -0.00001        0.00453
C          0.87868       -0.00027        0.84598
F          1.97928       -0.00001        0.03623
F         -0.46399        1.08293       -0.77745
F         -1.45409       -0.00027        0.82453
H          0.87348        0.90089        1.48146
H          0.87350       -0.90181        1.48091
