11
1,1,2,2,3-PENTAFLUOROPROPANE.gamout	Energy:    -614.5972703
C          1.82078        0.37225       -1.91101
C          0.56805       -0.46950       -1.70551
C          0.11433       -1.19588       -2.98484
F         -0.43989        0.31538       -1.25961
F          0.80046       -1.42515       -0.76537
F         -1.13445       -1.66511       -2.82197
F          0.12154       -0.31682       -4.02128
H          0.79229       -2.03535       -3.22171
F          2.19099        0.93747       -0.72274
H          1.60300        1.15540       -2.65455
H          2.63675       -0.27034       -2.28597
