11
1,1,1,3,3-PENTAFLUOROPROPANE.gamout	Energy:    -614.6321528
C         -2.43823        1.68710       -0.02436
C         -1.19955        2.54220        0.14959
C          0.10599        1.81066       -0.10973
H         -1.18768        2.94311        1.17434
H         -1.26988        3.38789       -0.55013
F         -3.54757        2.42617        0.13231
F         -2.48281        1.14365       -1.25760
F         -2.48894        0.68332        0.86005
F          1.12725        2.70361       -0.03249
F          0.31218        0.85541        0.83064
H          0.13588        1.32945       -1.10314
