27
1,1,3,3-TETRAMETHYLCYCLOPENTANE.gamout	Energy:    -353.2942019
C          1.83559        2.22330        2.08877
C          0.81300        3.28596        1.66165
C          1.14585        1.20867        3.02212
C          3.08185        2.84932        2.78424
C          2.46409        1.49834        0.87188
C          4.35413        2.03974        2.34702
C          3.79269        0.94128        1.39324
C          5.32754        2.95719        1.58198
C          5.08632        1.42052        3.54742
H          0.41336        3.83276        2.53272
H          1.26584        4.02556        0.98030
H         -0.04269        2.82670        1.13825
H          0.73884        1.71152        3.91531
H          1.84096        0.42892        3.37092
H          0.30855        0.70655        2.50910
H          3.18749        3.90379        2.48007
H          2.96125        2.85711        3.88010
H          1.80065        0.72376        0.45095
H          2.65163        2.23080        0.06659
H          3.61604        0.00737        1.95287
H          4.50032        0.69294        0.58505
H          5.65352        3.80129        2.21281
H          6.22915        2.40660        1.26459
H          4.85770        3.38022        0.67848
H          4.41450        0.78139        4.14427
H          5.93425        0.79610        3.21700
H          5.48953        2.19837        4.21831
