11
1,1,1,2,3,3,3-HEPTAFLUOROPROPANE.gamout	Energy:    -812.8866863
F         -1.35506       -1.41849        0.41855
C         -1.29525       -0.13817        0.03538
C          0.00000        0.51249        0.54734
C          1.29525       -0.13817        0.03538
F          1.38494       -0.08437       -1.29346
F          2.34535        0.50567        0.55470
F          1.35506       -1.41849        0.41856
F         -0.00000        1.82159        0.16209
F         -1.38494       -0.08437       -1.29346
F         -2.34535        0.50567        0.55471
H          0.00001        0.44377        1.64808
