24
1,1-DIMETHYLCYCLOHEXANE.gamout	Energy:    -314.0469657
C         -1.19664        0.00000        1.54206
C         -0.92158        0.00000        0.02423
C         -0.11794        1.26087       -0.38843
C          1.33632        1.26617        0.10581
C          2.08171        0.00000       -0.33507
C          1.33632       -1.26617        0.10581
C         -0.11794       -1.26087       -0.38843
C         -2.27359       -0.00000       -0.71166
H         -1.78045        0.88971        1.83193
H         -1.78045       -0.88971        1.83193
H         -0.27541       -0.00000        2.14438
H         -0.11075        1.31936       -1.49296
H         -0.64550        2.16540       -0.03655
H          1.85364        2.16582       -0.26983
H          1.36001        1.34082        1.20784
H          2.17243       -0.00000       -1.43801
H          3.11201       -0.00000        0.06055
H          1.85364       -2.16582       -0.26983
H          1.36001       -1.34083        1.20784
H         -0.64550       -2.16540       -0.03655
H         -0.11076       -1.31935       -1.49296
H         -2.86862        0.89071       -0.44838
H         -2.13228        0.00000       -1.80527
H         -2.86862       -0.89071       -0.44838
