8
1,1-DICHLORO-1-FLUOROETHANE.gamout	Energy:   -1097.6379663
C          1.59379        0.27410       -0.79527
C          0.69706       -0.89445       -0.45160
H          1.01331       -1.31556        0.51424
H         -0.34057       -0.53721       -0.37604
H          0.76077       -1.66953       -1.22616
F          1.50877        1.22148        0.16225
Cl         3.31692       -0.24413       -0.90066
Cl         1.09967        1.02779       -2.35635
