8
1,1-DIFLUORO-2-BROMOETHANE.gamout	Energy:   -2851.0955579
Br         0.03141       18.94192       -0.05094
C          1.67025       19.99974        0.00919
C          1.37717       21.48742        0.00247
F          0.73931       21.85911        1.13643
F          2.56940       22.14643       -0.04238
H          2.21419       19.73530        0.92556
H          2.26524       19.73372       -0.87287
H          0.76915       21.80140       -0.86443
