8
1,1-DIFLUORO-1,2-DICHLOROETHANE.gamout	Energy:   -1196.7701212
C          9.99777       18.04279       -0.03717
C         11.51972       18.03754       -0.06786
F          9.49665       19.14572       -0.60673
Cl         9.40010       16.60367       -0.94922
F          9.53107       17.97861        1.21573
Cl        12.20275       19.43347        0.82481
H         11.88193       17.11302        0.39815
H         11.85649       18.08961       -1.11046
