16
1,1-DIMETHOXYETHANE.gamout	Energy:    -308.4576358
O          1.98369        0.93740        1.93187
C          3.02372        1.61723        2.61308
O          4.17021        1.57150        1.83181
C          3.34605        0.96289        3.94679
C          0.67704        1.32569        2.26418
C          4.08146        2.25353        0.60064
H          2.70385        2.67860        2.76015
H          2.46223        0.95172        4.60280
H          4.15441        1.50852        4.45629
H          3.67086       -0.07286        3.76637
H         -0.00996        0.79055        1.59150
H          0.40293        1.07037        3.30746
H          0.52040        2.41608        2.12966
H          5.06584        2.18302        0.11546
H          3.31877        1.80744       -0.06021
H          3.83535        3.32536        0.74684
