8
1,1-DIFLUORO-2,2-DICHLOROETHANE.gamout	Energy:   -1196.7596572
C         17.98138       20.02207       -0.01582
C         19.29240       20.81412       -0.01828
Cl        16.56688       21.10686       -0.00554
Cl        17.96730       18.89739       -1.40955
F         19.35845       21.65577       -1.06680
F         19.36876       21.54069        1.12214
H         17.93439       19.41353        0.89556
H         20.15014       20.11768       -0.05727
