6
1,1-DICHLOROETHYLENE.gamout	Energy:    -997.2792005
C          0.96481        0.54299        0.51574
C          1.19998        1.74439        1.04566
Cl         2.74945        2.52958        0.95154
Cl        -0.01800        2.65643        1.88899
H          1.75858        0.00544       -0.00520
H         -0.02376        0.08916        0.59995
