8
1,1-DICHLOROTETRAFLUOROETHANE.gamout	Energy:   -1395.0256914
C         21.98718       19.99646        0.00472
C         23.54724       19.99284        0.01194
Cl        24.14783       18.31859       -0.02187
Cl        24.14681       20.85913        1.44653
F         23.95366       20.63352       -1.09501
F         21.54287       21.25261       -0.00751
F         21.54176       19.38009       -1.08946
F         21.50432       19.37727        1.07759
