10
1,1-DICHLOROACETONE.gamout	Energy:   -1111.6848404
Cl        -0.83290        1.33507       -0.09206
Cl        -1.02805       -1.57395       -0.72004
O          1.70510       -0.11052       -1.27121
C          1.33288       -0.32729       -0.14927
C         -0.17715       -0.30347        0.21312
C          2.25443       -0.64003        1.00677
H         -0.35451       -0.51985        1.27277
H          3.29670       -0.63713        0.66190
H          2.00457       -1.62660        1.43347
H          2.12351        0.10713        1.80826
