27
1,1-DIETHYLCYCLOPENTANE.gamout	Energy:    -353.2873715
C          2.80940       -1.04922        1.47662
C          3.37985        0.36235        1.80347
C          4.03649       -1.92546        1.13645
C          4.91011        0.24405        1.62877
C          5.24677       -1.25501        1.83861
C          5.21186       -1.63195        3.34834
C          6.61811       -1.66699        1.24702
C          6.27547       -1.00387        4.25441
C          6.81077       -1.54372       -0.26812
H          2.25901       -1.45485        2.34070
H          2.09151       -1.02229        0.64157
H          2.95889        1.14241        1.14952
H          3.12301        0.65384        2.83450
H          4.19587       -1.92009        0.04661
H          3.90975       -2.97954        1.43565
H          5.47139        0.90878        2.30491
H          5.18932        0.53388        0.60267
H          4.21827       -1.38150        3.75805
H          5.29058       -2.73225        3.41874
H          7.40051       -1.06667        1.74251
H          6.81848       -2.71451        1.53988
H          6.11591       -1.31056        5.30130
H          7.29720       -1.31091        3.98099
H          6.24392        0.09794        4.23275
H          7.84585       -1.80456       -0.54261
H          6.14892       -2.21855       -0.83393
H          6.63079       -0.51934       -0.63364
