32
1,10-DIBROMODECANE.gamout	Energy:   -5540.0208123
C         51.96158       10.09028       -0.00004
C         53.27596        9.30103        0.00019
C         52.17522       11.61068        0.00017
C         53.08623        7.78146       -0.00006
C         54.40227        6.99597        0.00014
C         54.21253        5.47640       -0.00009
C         55.52689        4.68712        0.00010
C         55.31321        3.16674       -0.00012
C         56.62529        2.39910        0.00010
C         50.86311       12.37828       -0.00010
Br        51.14434       14.33164        0.00017
Br        56.34403        0.44574       -0.00011
H         51.36209        9.80026       -0.88296
H         51.36164        9.80006        0.88251
H         53.87444        9.59562        0.88228
H         53.87486        9.59584       -0.88155
H         52.76771       11.90273        0.88430
H         52.76817       11.90288       -0.88360
H         52.48730        7.48688       -0.88218
H         52.48687        7.48664        0.88169
H         55.00121        7.29054        0.88226
H         55.00162        7.29079       -0.88162
H         53.61402        5.18181       -0.88217
H         53.61365        5.18160        0.88166
H         56.12641        4.97711        0.88301
H         56.12682        4.97733       -0.88246
H         54.72069        2.87470       -0.88424
H         54.72030        2.87453        0.88368
H         57.22973        2.60591        0.89377
H         57.23010        2.60606       -0.89330
H         50.25874       12.17145       -0.89383
H         50.25825       12.17127        0.89325
