36
1,2,4,5-TETRAETHYLBENZENE.gamout	Energy:    -545.9846375
C          5.84656        1.95187       -0.94502
C          6.30285        0.64961       -0.69525
C          4.47132        2.21818       -0.76663
C          6.85391        2.99810       -1.38432
C          5.47908       -0.39640       -0.26221
C          4.10654       -0.12724       -0.07359
C          6.09584       -1.75156        0.02126
C          3.64705        1.16795       -0.33725
C          3.11086       -1.19107        0.34129
C          3.84338        3.57767       -1.00155
C          7.78975        3.47658       -0.26256
C          3.98468        4.54293        0.18425
C          2.50678       -1.95127       -0.84948
C          6.55462       -1.91350        1.47854
H          7.36561        0.43451       -0.85370
H          7.47192        2.57470       -2.19584
H          6.33833        3.86721       -1.81941
H          5.39069       -2.55934       -0.23116
H          6.96556       -1.89270       -0.64233
H          2.57965        1.37438       -0.20330
H          3.57849       -1.90881        1.03369
H          2.29524       -0.71219        0.90878
H          4.26632        4.04450       -1.90688
H          2.77087        3.43271       -1.21274
H          8.50388        4.22451       -0.64237
H          7.23065        3.93507        0.56903
H          8.37042        2.64027        0.15940
H          3.47348        5.49739       -0.01991
H          3.54515        4.11156        1.09834
H          5.04066        4.76771        0.40113
H          1.78019       -2.70615       -0.50893
H          1.98608       -1.26151       -1.53315
H          3.28430       -2.46743       -1.43534
H          7.00724       -2.90436        1.64373
H          7.30276       -1.14906        1.74357
H          5.71260       -1.80424        2.18134
