12
1,2,3,4-TETRAFLUOROBENZENE.gamout	Energy:    -628.4194279
F          7.13794        2.87522       -0.94006
C          6.32699        1.85730       -0.67013
C          6.86287        0.61020       -0.33702
C          4.93734        2.02271       -0.71632
F          8.18127        0.44743       -0.29137
C          6.00346       -0.45833       -0.05371
F          4.44958        3.22295       -1.03677
C          4.08666        0.95868       -0.43410
F          6.53788       -1.63973        0.26192
C          4.62318       -0.28987       -0.10065
H          3.00813        1.12015       -0.47878
H          3.98033       -1.14243        0.12564
