15
1,2,3-BENZENETRIOL.gamout	Energy:    -457.3289598
O          7.19186        2.86545       -0.93739
C          6.30948        1.86739       -0.67247
O          8.19177        0.43803       -0.28860
C          6.84782        0.61154       -0.33690
O          6.59671       -1.63003        0.25983
C          5.97216       -0.45066       -0.05530
C          4.91754        2.03629       -0.71976
C          4.06189        0.96852       -0.43677
C          4.58489       -0.28359       -0.10231
H          6.70123        3.66912       -1.15257
H          8.35162       -0.48615       -0.04287
H          5.94125       -2.31498        0.44093
H          4.51022        3.01783       -0.98194
H          2.97990        1.11347       -0.47730
H          3.92577       -1.12772        0.12141
