11
1,2,3-TRICHLOROPROPANE.gamout	Energy:   -1497.1681155
C          3.57580        0.91274        1.29160
C          2.07138        0.98589        1.54231
C          1.68391        2.07929        2.52479
Cl         1.28344        1.26196       -0.07210
Cl         4.46390        0.37777        2.77456
Cl        -0.05799        2.02700        2.96364
H          3.98021        1.89115        0.99661
H          3.79129        0.18342        0.50145
H          1.70479        0.01357        1.89986
H          1.89488        3.07337        2.10579
H          2.25879        1.94536        3.45141
