12
1,2,4,5-TETRAFLUOROBENZENE.gamout	Energy:    -628.4246432
C          6.33203        1.85216       -0.66867
C          6.87353        0.61183       -0.33733
C          4.94483        2.02695       -0.71740
F          7.13272        2.88328       -0.94218
C          4.09135        0.96248       -0.43509
F          4.44623        3.22224       -1.03671
C          4.63284       -0.27785       -0.10374
C          6.02004       -0.45264       -0.05502
F          3.83216       -1.30899        0.16969
F          6.51864       -1.64795        0.26422
H          7.95556        0.47533       -0.29942
H          3.00932        1.09895       -0.47307
