24
1,2,3,4-TETRAMETHYLBENZENE.gamout	Energy:    -388.9621249
C          3.26104        5.31373        1.22429
C          3.22906        3.83328        0.91163
C          4.44408        3.10553        0.92086
C          2.00993        3.18275        0.61157
C          5.72958        3.83565        1.24223
C          4.44865        1.72038        0.63739
C          0.68841        3.91871        0.58445
C          2.03635        1.81061        0.33091
C          5.72009        0.90041        0.64087
C          3.23025        1.09406        0.34517
H          2.25840        5.75683        1.25959
H          3.74425        5.51354        2.19546
H          3.84050        5.87405        0.46928
H          5.72569        4.22425        2.27609
H          6.61552        3.19760        1.13768
H          5.87652        4.70974        0.58536
H         -0.13192        3.23258        0.32580
H          0.44311        4.37034        1.56098
H          0.68020        4.73543       -0.15736
H          1.10076        1.29365        0.09759
H          6.23047        0.92465        1.61882
H          5.50350       -0.15333        0.41015
H          6.44680        1.25849       -0.10837
H          3.21822        0.02267        0.12374
