24
1,2,3,5-TETRAMETHYLBENZENE.gamout	Energy:    -388.9650536
C          0.40396        3.35267        0.76339
C          1.91104        3.23292        0.80942
C          2.69290        4.40870        0.90039
C          2.55785        1.97764        0.76857
C          2.03200        5.76647        0.95359
C          4.08935        4.31354        0.94585
C          1.77980        0.68184        0.67795
C          3.95972        1.92497        0.81693
C          4.74771        3.07804        0.90183
C          6.25611        2.99685        0.91924
H         -0.09523        2.37909        0.68334
H          0.01002        3.85030        1.66697
H          0.07447        3.96293       -0.09531
H          1.36118        5.86234        1.82479
H          1.41285        5.95643        0.05961
H          2.77985        6.57077        1.01777
H          4.68002        5.23273        1.01956
H          2.46164       -0.18140        0.65901
H          1.09920        0.54575        1.53555
H          1.16119        0.63349       -0.23430
H          4.44962        0.94629        0.78770
H          6.60405        2.02459        1.30183
H          6.67578        3.11811       -0.09559
H          6.69679        3.78672        1.54831
