12
1,2,3,5-TETRAFLUOROBENZENE.gamout	Energy:    -628.4254370
F          7.14271        2.88219       -0.94183
C          6.33331        1.86062       -0.67100
C          6.85371        0.60623       -0.33595
C          4.94417        2.01891       -0.71528
F          8.17656        0.45777       -0.29433
C          6.02105       -0.47395       -0.04942
F          4.45195        3.21459       -1.03461
C          4.08195        0.96074       -0.43476
C          4.64290       -0.27219       -0.10537
F          3.82956       -1.29765        0.16672
H          6.44215       -1.44569        0.21024
H          3.00121        1.10040       -0.47347
