12
1,2,4-TRICHLOROBENZENE.gamout	Energy:   -1610.1362353
C          6.32643        1.86111       -0.67070
C          6.87417        0.61653       -0.33863
C          4.94476        2.04325       -0.72142
C          4.10285        0.96407       -0.43553
C          4.62916       -0.28549       -0.10214
Cl         2.37079        1.17572       -0.49412
C          6.01665       -0.46086       -0.05308
Cl         6.64944       -2.02557        0.36523
Cl         8.60238        0.43089       -0.28675
H          7.00025        2.69120       -0.89050
H          4.52182        3.01487       -0.98086
H          3.97034       -1.12492        0.12039
