22
1,2,3,4-TETRAHYDRONAPHTHALENE.gamout	Energy:    -387.7655465
C          3.49863        1.86706        1.42756
C          3.38782        3.27274        1.46889
C          4.61897        4.16147        1.52418
C          2.10853        3.85496        1.49026
C          2.32612        1.09185        1.41388
C          4.85420        1.18280        1.36446
C          5.90638        3.45094        1.09597
C          0.95273        3.07533        1.47461
C          1.06254        1.68100        1.43708
C          6.01639        2.08826        1.78458
H          4.73984        4.52838        2.56185
H          4.45064        5.06198        0.90896
H          2.02513        4.94614        1.51992
H          2.41307        0.00092        1.38434
H          5.02466        0.83825        0.32617
H          4.83313        0.26833        1.98130
H          6.77980        4.08183        1.33069
H          5.90652        3.30590       -0.00019
H         -0.03119        3.55188        1.49033
H          0.16553        1.05588        1.42692
H          6.97706        1.60275        1.54522
H          5.99933        2.23302        2.88061
