21
1,2,3-TRIMETHYLBENZENE.gamout	Energy:    -349.7035053
C          3.40916        5.40650        0.97514
C          3.39957        3.89318        0.95177
C          2.13975        3.23817        1.00706
C          4.58106        3.12028        0.88358
C          0.86102        4.03931        1.08398
C          2.07972        1.84057        0.99249
C          5.97735        3.70826        0.83398
C          4.48011        1.71629        0.87035
C          3.24674        1.07587        0.92407
H          2.97379        5.79237        1.91350
H          4.41381        5.83462        0.88372
H          2.79736        5.82392        0.15763
H          0.72816        4.68749        0.20043
H         -0.01624        3.37896        1.14874
H          0.84504        4.70600        1.96331
H          1.10416        1.34744        1.03567
H          6.53094        3.47650        1.76039
H          6.55356        3.27045        0.00221
H          5.99538        4.79730        0.70730
H          5.39727        1.12137        0.81600
H          3.19092       -0.01614        0.91221
