24
1,2,4,5-TETRAMETHYLBENZENE.gamout	Energy:    -388.9674246
C          2.07745        3.02637        1.50635
C          0.61474        2.66485        1.60622
C          3.08054        2.04564        1.66259
C          2.46812        4.34876        1.25570
C          2.72269        0.60383        1.93389
C          4.42202        2.43831        1.56029
C          3.80959        4.74143        1.15341
C          4.81268        3.76070        1.30965
C          4.16746        6.18327        0.88221
C          6.27540        4.12222        1.20989
H          0.32756        1.90891        0.85463
H          0.36581        2.23639        2.59277
H         -0.02577        3.54650        1.45439
H          1.68996        5.10975        1.13439
H          3.62394       -0.01914        2.03472
H          2.13542        0.49490        2.86248
H          2.10871        0.17525        1.12263
H          5.20017        1.67732        1.68160
H          4.75533        6.29220       -0.04599
H          3.26618        6.80609        0.78070
H          4.78078        6.61200        1.69390
H          6.56276        4.87740        1.96217
H          6.91586        3.24038        1.36081
H          6.52425        4.55158        0.22372
