12
1,2,3-TRICHLOROBENZENE.gamout	Energy:   -1610.1327765
C          6.33544        1.86339       -0.67143
C          6.87445        0.62016       -0.33954
C          4.95271        2.04200       -0.72126
C          4.10180        0.96962       -0.43692
C          4.62555       -0.29407       -0.09958
Cl         2.38102        1.22157       -0.50640
C          6.02476       -0.45328       -0.05511
Cl         3.57172       -1.62307        0.25315
Cl         6.72439       -1.99304        0.35606
H          6.99969        2.70184       -0.89358
H          7.95348        0.46511       -0.29659
H          4.51665        3.00814       -0.97942
