36
1,2,3,5-TETRAETHYLBENZENE.gamout	Energy:    -545.9844559
C          6.32707        1.76981       -0.85742
C          6.70573        0.49167       -0.38411
C          4.99467        2.00642       -1.22217
C          7.30100        2.93238       -0.93215
C          5.72483       -0.52491       -0.30137
C          8.15382        0.19676       -0.03100
C          4.40295       -0.24340       -0.67198
C          6.03779       -1.91687        0.22004
C          4.01149        1.01705       -1.13290
C          2.56867        1.31394       -1.47858
C          5.88749       -2.04271        1.74438
C          8.97447       -0.32412       -1.22249
C          1.75591        1.81154       -0.27321
C          7.37207        3.73631        0.37514
H          4.71832        3.00007       -1.59007
H          8.30858        2.58183       -1.20348
H          6.98850        3.60394       -1.74917
H          8.63888        1.09792        0.37276
H          8.19832       -0.53966        0.78538
H          3.65639       -1.04175       -0.60519
H          5.35792       -2.63681       -0.26540
H          7.05268       -2.22282       -0.07565
H          2.53205        2.07307       -2.27846
H          2.09193        0.40872       -1.89188
H          6.11336       -3.06757        2.07978
H          6.56505       -1.35443        2.27495
H          4.86032       -1.79937        2.06006
H         10.01627       -0.52743       -0.92736
H          8.54567       -1.25588       -1.62395
H          8.98947        0.40688       -2.04668
H          0.71181        2.02026       -0.55667
H          1.74740        1.06264        0.53540
H          2.18982        2.73708        0.13847
H          8.07508        4.58002        0.28550
H          6.38307        4.14386        0.63956
H          7.70135        3.10616        1.21703
