48
1,2,4,5-TETRAISOPROPYLBENZENE.gamout	Energy:    -702.9991718
C         -1.24300       -0.70778        0.00022
C         -1.24312        0.70767       -0.00027
C          1.24314       -0.70765        0.00027
C          1.24306        0.70777        0.00002
C         -2.50655       -1.56767        0.00027
C         -2.50679        1.56718       -0.00037
C          2.50669       -1.56734       -0.00029
C          2.50649        1.56737        0.00043
C          0.00002       -1.35824        0.00052
C         -0.00015        1.35794       -0.00040
C         -2.62056       -2.42958        1.26788
C         -2.61953       -2.43032       -1.26688
C         -2.62112        2.42973       -1.26743
C         -2.62035        2.42988        1.26657
C          2.61944       -2.42929       -1.26767
C          2.62143       -2.43055        1.26606
C          2.61950        2.43030        1.26701
C          2.62152        2.43037       -1.26595
H         -3.37911       -0.89856       -0.00021
H         -3.37917        0.89784       -0.00009
H          3.37920       -0.89814       -0.00068
H          3.37899        0.89816        0.00110
H          0.00010       -2.45120        0.00071
H         -0.00016        2.45092       -0.00062
H         -1.80445       -3.16836        1.33679
H         -3.57158       -2.98670        1.27140
H         -2.58729       -1.81159        2.17875
H         -2.58564       -1.81285       -2.17810
H         -3.57050       -2.98744       -1.27064
H         -1.80332       -3.16912       -1.33484
H         -1.80534        3.16891       -1.33607
H         -3.57237        2.98637       -1.27026
H         -2.58801        1.81246       -2.17876
H         -2.58682        1.81276        2.17799
H         -3.57154        2.98656        1.26973
H         -1.80450        3.16908        1.33475
H          2.58554       -1.81168       -2.17876
H          3.57049       -2.98624       -1.27176
H          1.80339       -3.16826       -1.33583
H          1.80561       -3.16970        1.33474
H          3.57253       -2.98734        1.26775
H          2.58931       -1.81410        2.17791
H          2.58601        1.81367        2.17873
H          3.57065        2.98698        1.27015
H          1.80365        3.16955        1.33483
H          1.80584        3.16967       -1.33497
H          3.57269        2.98694       -1.26723
H          2.58984        1.81401       -2.17783
