14
1,2-DICHLORO-4-NITROBENZENE.gamout	Energy:   -1354.9945254
C          6.29437        1.88039       -0.67565
C          6.80547        0.62621       -0.34110
C          4.91235        2.04482       -0.72179
C          4.05686        0.97137       -0.43728
C          4.59484       -0.28774       -0.10104
Cl         2.34266        1.21737       -0.50558
Cl         3.56323       -1.63710        0.25715
C          5.97985       -0.45873       -0.05339
N          8.27124        0.43434       -0.28788
O          8.68290       -0.67495        0.00802
O          8.97122        1.39989       -0.54410
H          6.97703        2.70126       -0.89290
H          4.47643        3.01114       -0.98000
H          6.41712       -1.42243        0.20384
