16
1,2-DIMETHOXYETHANE.gamout	Energy:    -308.4438801
C          1.75642        2.06229        3.91133
C          1.82377        1.17172        2.68180
O          2.71736        1.75413        1.76808
O          0.86306        1.47971        4.82518
C          2.87641        1.02276        0.58369
C          0.70315        2.21162        6.00911
H          1.42616        3.07877        3.61052
H          2.77263        2.16694        4.34610
H          0.80761        1.06726        2.24687
H          2.15378        0.15517        2.98267
H          3.27527        0.00459        0.77316
H          1.92163        0.91206        0.02856
H          3.59050        1.56372       -0.05520
H          0.30362        3.22940        5.81896
H         -0.01074        1.67049        6.64809
H          1.65767        2.32330        6.56448
