10
1,2-PROPYLENE_OXIDE.gamout	Energy:    -192.8474605
C          0.70625       -1.29342        0.28263
C         -0.73824       -1.02441        0.19960
H         -2.58578       -1.66303       -0.71612
H         -1.28041       -2.87674       -0.76460
H         -2.15513       -2.55500        0.76539
C         -1.74435       -2.09208       -0.14746
O          0.14979       -0.61220       -0.83491
H         -1.12904       -0.19133        0.80511
H          1.34071       -0.68866        0.94576
H          1.07741       -2.30894        0.08388
