8
1,2-DIFLUOROTETRACHLOROETHANE.gamout	Energy:   -2115.5449200
Cl         0.02191        0.97183       -0.05131
C          1.52054        1.93996       -0.00979
Cl         1.14897        3.67628       -0.07291
C          2.35537        1.57084        1.27572
F          2.26752        1.61085       -1.07472
Cl         3.92937        2.41171        1.23127
F          2.58107        0.24889        1.23538
Cl         1.47270        1.96764        2.76561
