28
1,2-DIPHENYLETHANE.gamout	Energy:    -541.1852810
C          4.85667        2.14229        2.48501
C          6.01852        1.21696        2.04169
C          7.37717        1.87357        2.15432
C          3.49821        1.48527        2.37267
C          7.92684        2.58845        1.07726
C          8.10714        1.81703        3.35322
C          2.94653        0.77532        3.45193
C          2.77050        1.53626        1.17212
C          9.16499        3.22744        1.19333
C          9.34531        2.45406        3.47470
C          1.70865        0.13567        3.33648
C          1.53265        0.89852        1.05122
C          9.87893        3.16303        2.39380
C          0.99703        0.19445        2.13435
H          4.88225        3.05813        1.87116
H          5.03506        2.45846        3.52637
H          5.99275        0.30109        2.65544
H          5.84014        0.90089        1.00028
H          7.37812        2.63952        0.13150
H          7.70055        1.25941        4.20290
H          3.49347        0.72868        4.39895
H          3.17861        2.09003        0.32064
H          9.57625        3.77442        0.34031
H          9.89845        2.39285        4.41612
H          1.29580       -0.40737        4.19124
H          0.98127        0.95535        0.10850
H         10.84894        3.65897        2.48609
H          0.02725       -0.30203        2.04250
