18
1,2-DIBROMOCYCLOHEXANE.gamout	Energy:   -5381.8016611
Br        -3.32379        0.16778        2.80335
C         -3.86745        1.03193        1.10381
C         -5.09073        1.92890        1.28615
C         -4.13111       -0.06100        0.05870
Br        -4.74614        3.42531        2.54143
C         -5.55743        2.51313       -0.05457
C         -4.58876        0.53070       -1.28218
C         -5.82418        1.41531       -1.09308
H         -2.99491        1.63896        0.82256
H         -5.89832        1.36050        1.76957
H         -3.21709       -0.66170       -0.06811
H         -4.90792       -0.74189        0.44794
H         -4.77942        3.20040       -0.42927
H         -6.45975        3.11951        0.11852
H         -4.79782       -0.28662       -1.99206
H         -3.77006        1.12769       -1.72432
H         -6.12517        1.87817       -2.04762
H         -6.67682        0.79388       -0.76347
