22
1,2-DIMETHYLCYCLOHEXENE.gamout	Energy:    -312.8311340
C          1.73823        4.52676        1.97550
C          2.46580        3.20700        1.89012
C          1.93454        2.01000        2.22788
C          3.89450        3.33852        1.38963
C          0.51420        1.79543        2.69043
C          2.74381        0.72535        2.15910
C          4.54080        2.01402        0.97690
C          4.25302        0.93876        2.02384
H          2.33501        5.25602        2.55335
H          0.75114        4.45901        2.45010
H          1.60226        4.96981        0.97160
H          4.50237        3.82410        2.17987
H          3.91007        4.04852        0.54210
H          0.02990        1.00755        2.08506
H         -0.11580        2.69199        2.62897
H          0.48948        1.43607        3.73593
H          2.37177        0.11866        1.30870
H          2.52685        0.11853        3.05797
H          5.62611        2.14804        0.83258
H          4.12890        1.69147        0.00306
H          4.75037       -0.01113        1.76431
H          4.66884        1.25892        2.99667
