11
1,2-DICHLOROPROPANE.gamout	Energy:   -1037.7709224
C          1.56982        0.73579        1.24225
C          2.38621        1.95495        0.82763
C          2.79457        2.87034        1.96841
Cl         3.87548        1.30788       -0.01614
Cl        -0.03833        1.22807        1.91431
H          2.08936        0.15607        2.01812
H          1.37273        0.08753        0.37950
H          1.83702        2.51030        0.05378
H          3.37738        3.72435        1.59391
H          3.40698        2.32713        2.70532
H          1.89319        3.25145        2.47310
