14
1,2-BENZENEDIOL.gamout	Energy:    -382.1936654
O          0.29681        3.10561        0.21169
C          1.65510        3.12008        0.19251
C          2.31447        1.87057        0.10828
C          2.41592        4.29047        0.25094
O          1.53534        0.75915        0.05305
C          3.71109        1.83628        0.08600
C          3.81670        4.24609        0.22775
C          4.46595        3.01574        0.14516
H         -0.02623        4.01424        0.27029
H          1.89776        5.25342        0.31593
H          2.10361       -0.02020       -0.00230
H          4.21318        0.86485        0.02062
H          4.38913        5.17552        0.27479
H          5.55705        2.96242        0.12606
