19
1,2-DIMETHYLCYCLOPENTENE.gamout	Energy:    -273.5721385
C          4.23678        1.96230        3.88667
C          2.76504        1.81896        4.33455
C          2.04397        1.36075        3.08049
C          4.17101        2.10179        2.34929
C          2.81850        1.51667        1.98682
C          2.47652        1.23885        0.55465
C          0.63138        0.86689        3.15934
H          4.75586        2.80215        4.37423
H          4.78990        1.04502        4.14767
H          2.34201        2.78178        4.68563
H          2.64162        1.11138        5.17431
H          5.00457        1.58710        1.83802
H          4.22596        3.16099        2.02594
H          3.18282        0.51330        0.11154
H          1.45967        0.83965        0.42656
H          2.55543        2.15757       -0.05585
H         -0.03189        1.63617        3.59624
H          0.22066        0.58906        2.17757
H          0.55614       -0.01596        3.81995
