8
1,2-DICHLOROTETRAFLUOROETHANE.gamout	Energy:   -1395.0225041
Cl        -2.15255        0.33978        0.00000
C         -0.58782       -0.51319       -0.00000
C          0.58782        0.51319       -0.00000
Cl         2.15255       -0.33978        0.00000
F          0.49896        1.28403       -1.08502
F          0.49896        1.28403        1.08502
F         -0.49896       -1.28403        1.08502
F         -0.49896       -1.28403       -1.08502
