13
1,2-PROPYLENE_GLYCOL.gamout	Energy:    -269.2112756
C          0.70783        2.27531        1.56148
O         -0.23135        1.88214        2.53892
C          1.94211        1.37524        1.66835
C          1.62525       -0.08014        1.36594
O          2.93138        1.80353        0.74495
H          0.30661        2.19356        0.53033
H          1.02869        3.33065        1.70437
H         -1.03367        2.40642        2.42819
H          2.31464        1.44898        2.71157
H          0.81866       -0.43581        2.02309
H          1.30079       -0.18303        0.31710
H          2.51810       -0.70700        1.51188
H          3.24037        2.67890        1.01255
