14
1,2-DIBROMOBUTANE.gamout	Energy:   -5304.4803426
C          2.41160        1.61263        0.09742
C          1.30690        0.57697       -0.06434
C          0.29713        0.77884       -1.19758
Br         2.27686       -1.15110       -0.40361
Br         1.81533        3.26460        1.01361
C         -0.70036        1.92795       -1.00781
H          3.21849        1.23411        0.73192
H          2.82038        1.92698       -0.87168
H          0.80593        0.39595        0.89643
H          0.85619        0.90698       -2.14062
H         -0.26554       -0.16194       -1.30494
H         -1.44055        1.91123       -1.82413
H         -1.25188        1.83330       -0.05807
H         -0.21708        2.91459       -1.01093
