108
1,2-DIPALMITIN.gamout	Energy:   -1748.4505537
O        -11.42753        0.36566        0.93625
C        -12.69389        0.14570        0.50980
C        -13.68958        0.44912        1.60453
C        -13.88175        1.96190        1.82727
C        -14.86403        2.28621        2.96070
C        -15.12853        3.78722        3.14596
C        -16.05987        4.11604        4.32203
C        -16.37198        5.61120        4.48110
C        -17.28195        5.93761        5.67475
C        -17.61593        7.42903        5.82606
C        -18.52096        7.75112        7.02480
C        -18.86322        9.24079        7.17609
C        -19.76739        9.55933        8.37642
C        -20.11275       11.04808        8.52995
C        -21.01669       11.36542        9.72950
C        -21.36091       12.85233        9.88059
C        -22.26447       13.15594       11.07806
C        -10.35909        0.21643       -0.00593
C         -9.73106       -1.17402        0.15058
C        -10.39240       -2.27946       -0.67189
O         -9.90981       -3.55510       -0.31547
O         -8.29873       -1.16715       -0.07903
C         -7.80709       -0.67813       -1.23949
C         -6.30589       -0.85123       -1.31842
C         -5.90250       -2.21283       -1.92440
C         -4.38466       -2.37239       -2.10469
C         -3.96352       -3.71204       -2.73050
C         -2.44911       -3.85049       -2.95299
C         -2.02364       -5.18285       -3.59024
C         -0.51401       -5.30156       -3.85100
C         -0.08462       -6.62765       -4.49844
C          1.42057       -6.72617       -4.79134
C          1.85454       -8.04619       -5.44819
C          3.35599       -8.12852       -5.76463
C          3.79371       -9.44441       -6.42668
C          5.29089       -9.51668       -6.75859
C          5.72525      -10.83114       -7.41808
C          7.21772      -10.88764       -7.75110
O        -12.96599       -0.23204       -0.60341
O         -8.49253       -0.18532       -2.10316
H        -13.33239       -0.02046        2.53581
H        -14.63881       -0.02502        1.31589
H        -14.23669        2.41861        0.88618
H        -12.89937        2.41714        2.04313
H        -15.82328        1.76875        2.77084
H        -14.47742        1.86198        3.90654
H        -15.56151        4.19620        2.21340
H        -14.16548        4.31410        3.28371
H        -15.60790        3.73786        5.25883
H        -17.00743        3.55749        4.20251
H        -16.84364        5.98450        3.55217
H        -15.42395        6.17301        4.58043
H        -16.80336        5.57697        6.60520
H        -18.22253        5.36223        5.58213
H        -16.67570        8.00566        5.91431
H        -18.10018        7.78898        4.89831
H        -18.03488        7.39408        7.95273
H        -19.45882        7.17031        6.93826
H        -19.35083        9.59681        6.24863
H        -17.92605        9.82280        7.26208
H        -19.27948        9.20192        9.30321
H        -20.70436        8.97698        8.29023
H        -20.60117       11.40440        7.60303
H        -19.17683       11.63210        8.61660
H        -20.52999       11.00982       10.65778
H        -21.95487       10.78456        9.64400
H        -21.84764       13.20798        8.95344
H        -20.42545       13.43550        9.96844
H        -23.22558       12.61904       11.00279
H        -22.49031       14.23168       11.14785
H        -21.79132       12.85312       12.02780
H         -9.61798        0.98144        0.26161
H        -10.72177        0.39199       -1.02449
H         -9.80334       -1.44850        1.21331
H        -11.47310       -2.26876       -0.47365
H        -10.26073       -2.06426       -1.74931
H         -8.95073       -3.55106       -0.43834
H         -5.87402       -0.74501       -0.31111
H         -5.92633       -0.03628       -1.95323
H         -6.40169       -2.32851       -2.90272
H         -6.28593       -3.02415       -1.27911
H         -3.88408       -2.25158       -1.12582
H         -4.01324       -1.54414       -2.73680
H         -4.48158       -3.83777       -3.69980
H         -4.31891       -4.54293       -2.09207
H         -1.92184       -3.72137       -1.98886
H         -2.10422       -3.01755       -3.59479
H         -2.56544       -5.31437       -4.54603
H         -2.35294       -6.01899       -2.94447
H          0.03538       -5.16474       -2.90022
H         -0.19561       -4.46395       -4.50057
H         -0.64569       -6.76659       -5.44203
H         -0.38737       -7.46881       -3.84614
H          1.98688       -6.58288       -3.85148
H          1.71501       -5.88370       -5.44600
H          1.27939       -8.19070       -6.38243
H          1.57295       -8.89170       -4.79198
H          3.93406       -7.97982       -4.83281
H          3.63246       -7.28301       -6.42320
H          3.20955       -9.59459       -7.35443
H          3.52688      -10.29199       -5.76689
H          5.87882       -9.36370       -5.83351
H          5.55749       -8.67268       -7.42334
H          5.13613      -10.98648       -8.34096
H          5.46531      -11.67575       -6.75304
H          7.50600      -10.08276       -8.44879
H          7.48647      -11.84650       -8.22062
H          7.83742      -10.77614       -6.84485
