12
1,3,5-TRICHLOROBENZENE.gamout	Energy:   -1610.1393859
C          6.33984        1.86886       -0.67288
C          6.85669        0.61395       -0.33797
C          4.95124        2.02382       -0.71648
C          4.08496        0.96337       -0.43538
Cl         4.28201        3.58133       -1.13270
C          4.63972       -0.27624       -0.10429
C          6.02299       -0.47060       -0.05038
Cl         3.57788       -1.61534        0.25095
Cl         8.58745        0.39525       -0.27732
H          7.00250        2.70494       -0.89454
H          3.00458        1.09960       -0.47337
H          6.44039       -1.44301        0.20931
