18
1,3,5-TRINITROBENZENE.gamout	Energy:    -844.7060236
C          6.31779        1.85190       -0.63129
C          6.88049        0.60117       -0.38500
C          4.94112        2.06491       -0.63873
N          7.22192        3.00189       -0.89540
C          6.01046       -0.45909       -0.14095
C          4.62554       -0.30493       -0.13607
N          6.57984       -1.80613        0.12370
C          4.11887        0.96827       -0.38761
N          2.64581        1.16581       -0.38684
O          5.78943       -2.70810        0.33073
O          7.79276       -1.90554        0.11268
O          2.24007        2.29161       -0.60840
O          1.95707        0.18756       -0.16356
O          8.41809        2.77827       -0.87963
O          6.69771        4.07955       -1.10752
H          7.96016        0.45836       -0.38362
H          4.52308        3.05173       -0.83299
H          3.96452       -1.14863        0.05742
