30
1,3,5-TRIETHYLBENZENE.gamout	Energy:    -467.4765288
C          0.97860        5.99644        0.58391
C          1.29777        5.95533        2.08706
C          2.61978        5.28467        2.39815
C          3.80957        6.02556        2.44970
C          5.04604        5.41440        2.70615
C          6.32472        6.22648        2.72627
C          7.00134        6.32962        1.35002
C          5.07385        4.02782        2.91562
C          3.90475        3.25374        2.87308
C          3.95922        1.75294        3.07245
C          4.20352        0.97284        1.77143
C          2.68745        3.90010        2.61378
H          0.92977        4.97968        0.16098
H          0.01075        6.48970        0.39557
H          1.75442        6.54772        0.02793
H          1.30579        6.98541        2.48301
H          0.48666        5.42519        2.61503
H          3.77104        7.11008        2.29870
H          6.10732        7.24223        3.09877
H          7.03137        5.77566        3.44400
H          6.33410        6.80748        0.61424
H          7.92747        6.92520        1.40588
H          7.26201        5.33243        0.95928
H          6.03028        3.53928        3.13245
H          4.75671        1.51023        3.79572
H          3.01275        1.41178        3.52590
H          4.23652       -0.11308        1.95962
H          3.40487        1.16560        1.03654
H          5.15816        1.26435        1.30340
H          1.76448        3.31002        2.59267
