12
1,3,5-TRIFLUOROBENZENE.gamout	Energy:    -529.3130467
C          6.31885        1.84256       -0.66602
C          6.88337        0.61067       -0.33700
C          4.94082        2.04766       -0.72292
F          7.13185        2.86798       -0.93810
C          6.00999       -0.43994       -0.05848
C          4.62347       -0.29684       -0.09871
F          6.52169       -1.63294        0.26006
C          4.11882        0.95893       -0.43413
F          2.79361        1.12656       -0.48074
H          7.96434        0.47446       -0.29912
H          4.52290        3.02040       -0.98292
H          3.96054       -1.13334        0.12326
