12
1,3,5-TRICHLOROTRIFLUOROBENZENE.gamout	Energy:   -1907.4953489
C          6.33784        1.86623       -0.67228
Cl         7.38882        3.19248       -1.02411
C          6.86531        0.61271       -0.33769
C          4.94782        2.03151       -0.71844
F          8.17823        0.44627       -0.29172
C          6.02154       -0.46783       -0.05106
F          4.44040        3.21327       -1.03413
C          4.08797        0.96288       -0.43518
Cl         6.68467       -2.00984        0.36113
C          4.63411       -0.28323       -0.10240
Cl         2.37424        1.17958       -0.49559
F          3.82844       -1.29904        0.16707
