21
1,3,5-TRIMETHYLBENZENE.gamout	Energy:    -349.7087161
C          1.91061        4.00547        2.08045
C          0.61537        4.78162        2.14307
C          3.05877        4.57489        1.50830
C          4.26179        3.86244        1.41282
C          5.49500        4.50437        0.82086
C          4.30041        2.54821        1.90446
C          3.17553        1.94963        2.48815
C          1.98793        2.69315        2.56663
C          3.23901        0.54477        3.04183
H          0.79612        5.85481        2.31269
H          0.05131        4.69410        1.19718
H         -0.03779        4.41150        2.94816
H          3.01152        5.59996        1.12516
H          6.03342        5.10249        1.57782
H          6.20087        3.75047        0.43936
H          5.23974        5.18551       -0.00630
H          5.23227        1.97741        1.83522
H          1.10008        2.23679        3.01725
H          2.35460       -0.04467        2.75008
H          4.13620        0.01188        2.69221
H          3.26871        0.55384        4.14578
