14
1,3-CYCLOHEXADIENE.gamout	Energy:    -233.0922972
C         -0.13460       -1.42308       -0.05320
C         -1.26011       -0.68439       -0.09714
C         -1.20989        0.76995        0.09723
C         -0.03592        1.42887        0.05309
C          1.24669        0.68682       -0.24321
C          1.19622       -0.77144        0.24303
H         -0.17811       -2.51170       -0.16141
H         -2.23192       -1.16021       -0.26053
H         -2.14632        1.31204        0.26106
H         -0.00403        2.51773        0.16264
H          1.41494        0.70851       -1.34053
H          2.11210        1.20510        0.20111
H          1.36213       -0.80388        1.34047
H          2.02412       -1.34874       -0.20006
