15
1,3-DIAMINOPROPANE.gamout	Energy:    -229.5075387
C         -3.81109        1.34925       -0.15776
C         -2.69625        0.30555       -0.10433
C         -1.29167        0.90650       -0.08271
H         -2.77226       -0.37243       -0.97368
H         -2.85192       -0.32177        0.79223
N         -5.12456        0.71345       -0.10542
H         -3.65220        1.99740       -1.05003
H         -3.72080        2.01665        0.71858
H         -5.27404        0.15125       -0.94524
H         -5.86214        1.41837       -0.10554
N         -0.27493       -0.14142       -0.07954
H         -1.21938        1.61443        0.77461
H         -1.14699        1.51891       -0.99154
H         -0.33544       -0.68328        0.78449
H          0.65959        0.26799       -0.08806
