14
1,3-BENZENEDIOL.gamout	Energy:    -382.2000526
O          0.29526        2.53745        0.24071
C          1.65257        2.53501        0.18420
C          2.29489        1.29202        0.20029
C          2.40209        3.72166        0.11212
C          3.69184        1.23280        0.14398
C          3.79509        3.64555        0.05650
O          4.26610        0.00186        0.16262
C          4.45112        2.41314        0.07164
H         -0.02300        3.44950        0.22230
H          1.70894        0.37370        0.25665
H          1.89639        4.69196        0.09968
H          4.38224        4.56622        0.00015
H          5.22657        0.09728        0.11978
H          5.54337        2.36293        0.02787
