22
1,3-DIMETHYL-2-ETHENYLBENZENE.gamout	Energy:    -387.7343705
C          0.97530        4.95037        1.31187
C          1.46805        3.78988        1.76980
C          2.86711        3.30382        1.70800
C          3.98419        4.13370        1.99061
C          3.07502        1.93451        1.38281
C          3.85238        5.58761        2.38846
C          5.27400        3.58151        1.92547
C          1.91092        1.01735        1.08091
C          4.37855        1.42883        1.31840
C          5.47772        2.24571        1.58667
H          1.59409        5.69657        0.80760
H         -0.08923        5.18261        1.41070
H          0.75273        3.08855        2.21655
H          3.78355        6.25024        1.50820
H          2.95471        5.77074        2.99725
H          4.73409        5.90911        2.96354
H          6.13323        4.21919        2.15352
H          1.26803        0.86092        1.96528
H          1.26437        1.42284        0.28564
H          2.26723        0.02848        0.75659
H          4.53076        0.37826        1.05443
H          6.49142        1.83834        1.53986
