11
1,3-DIBROMOPROPANE.gamout	Energy:   -5265.2245320
Br        -2.89789        0.17111        0.00000
C         -1.25262       -0.91069       -0.00000
C         -0.00000       -0.04065       -0.00001
C          1.25262       -0.91069       -0.00000
Br         2.89789        0.17111        0.00000
H         -1.31627       -1.54715        0.89317
H         -1.31627       -1.54716       -0.89316
H          0.00001        0.61414       -0.88548
H          0.00001        0.61415        0.88546
H          1.31627       -1.54715        0.89316
H          1.31628       -1.54716       -0.89316
