26
1,3-DIPHENYLTRIAZENE.gamout	Energy:    -627.2745215
C          6.97776        1.74313       -0.58401
C          7.16835        0.40166       -0.23806
C          5.67618        2.24105       -0.73748
C         -2.51333       -0.75871       -0.29951
C         -2.00175       -2.00365        0.08003
C         -1.62676        0.29325       -0.55776
C          4.57147        1.41228       -0.54954
C          0.26170       -1.13703       -0.06029
N          1.63178       -1.37168        0.07108
C         -0.24750        0.11723       -0.44250
C         -0.62521       -2.19693        0.20049
C          6.06721       -0.43473       -0.04736
C          4.76033        0.05930       -0.20180
N          3.72556       -0.87491        0.01470
N          2.55528       -0.44729       -0.14978
H          7.83806        2.40077       -0.73337
H          8.17979        0.00497       -0.11570
H          5.52390        3.29005       -1.00691
H         -3.59151       -0.60944       -0.39332
H         -2.67892       -2.83691        0.28578
H         -2.01356        1.27172       -0.85556
H          3.55759        1.79657       -0.66729
H          1.97431       -2.29768        0.34109
H          0.44237        0.93624       -0.64446
H         -0.23071       -3.17298        0.49793
H          6.18976       -1.48570        0.22370
