15
1,3-PROPANEDIAMINE.gamout	Energy:    -229.5078731
N          2.48872        0.33581        0.01758
N         -2.51551        0.30975        0.00969
C          0.02449        0.34883       -0.01573
C          1.29311       -0.50295       -0.02830
C         -1.27789       -0.46356        0.00783
H          0.06390        1.02087        0.86048
H          0.01829        1.00648       -0.90772
H          1.25585       -1.19283       -0.90196
H          1.29800       -1.15083        0.86734
H         -1.28208       -1.11806        0.89878
H         -1.30260       -1.14610       -0.86140
H          2.54293        0.91099       -0.82507
H          3.32990       -0.24186        0.01626
H         -2.55525        0.90938       -0.81632
H         -2.53079        0.94212        0.81168
