10
1,3-PROPYLENE_OXIDE.gamout	Energy:    -192.8440344
C          2.06601        2.06105        0.90262
C          0.52398        2.02693        0.94526
C          1.94393        0.52269        0.90624
O          0.51047        0.59149        0.94492
H          2.55499        2.49949        1.78464
H          2.50535        2.49919       -0.00531
H          0.01014        2.45085        0.06221
H          0.05992        2.44992        1.85591
H          2.36262        0.01031        1.79263
H          2.31419        0.00968       -0.00109
