22
1,3-DIMETHYLCYCLOHEXENE.gamout	Energy:    -312.8310578
C          2.58759        4.60927        1.30143
C          4.02031        4.64976        1.84610
C          4.83161        3.45467        1.34059
C          1.96071        3.23163        1.38665
C          2.70487        2.13636        1.61885
C          0.46952        3.16911        1.18684
C          4.20931        2.12271        1.79151
C          4.84481        0.92104        1.07632
H          1.95133        5.33438        1.84146
H          2.56980        4.94369        0.24482
H          4.50631        5.60044        1.56944
H          3.99140        4.62495        2.95081
H          4.86731        3.47938        0.23500
H          5.87739        3.51450        1.68777
H          2.20131        1.16326        1.68861
H          0.17906        3.63014        0.22506
H          0.09429        2.13423        1.19438
H         -0.06261        3.73330        1.97452
H          4.41929        2.00092        2.87472
H          4.65576        0.96206       -0.00982
H          5.93666        0.90071        1.22952
H          4.43590       -0.03159        1.45178
