10
1,3-BUTADIENE.gamout	Energy:    -155.7718056
C          1.01797        0.28213        0.98077
C          1.73205        0.74992        2.01792
C          3.13371        1.14951        1.94200
C          3.84741        1.61856        2.97884
H         -0.03141       -0.00442        1.08818
H          1.46410        0.17112       -0.01333
H          1.25221        0.84829        3.00006
H          3.61384        1.05017        0.96010
H          4.89676        1.90522        2.87141
H          3.40096        1.73063        3.97268
