12
1,4-DICHLORO-CIS-2-BUTENE.gamout	Energy:   -1075.7952526
C          1.47614        0.63340        0.52786
C         -1.47614        0.63340       -0.52786
C         -0.63496       -0.56012       -0.21803
C          0.63496       -0.56012        0.21803
Cl         2.83827        0.80405       -0.67436
Cl        -2.83827        0.80405        0.67436
H          0.91986        1.57809        0.50983
H          1.96099        0.52968        1.50879
H         -0.91986        1.57809       -0.50983
H         -1.96099        0.52968       -1.50879
H         -1.12805       -1.52695       -0.36872
H          1.12806       -1.52695        0.36872
