24
1,4-DIMETHYLCYCLOHEXANE.gamout	Energy:    -314.0513428
C         -0.25055       -1.30494        0.64515
C         -1.38212       -0.59076       -0.11460
C         -1.14127        0.92867       -0.12392
C          0.25055        1.30494       -0.64515
C          1.38213        0.59076        0.11460
C          1.14127       -0.92867        0.12392
H         -0.32384       -1.04308        1.71823
H         -0.39275       -2.39827        0.58532
H         -1.34446       -0.93918       -1.16603
C         -2.76032       -0.94473        0.45038
H         -1.91834        1.42593       -0.73057
H         -1.26204        1.31395        0.90693
H          0.32384        1.04308       -1.71822
H          0.39276        2.39827       -0.58532
C          2.76032        0.94473       -0.45038
H          1.34446        0.93918        1.16603
H          1.91834       -1.42593        0.73057
H          1.26204       -1.31395       -0.90693
H         -2.85044       -0.61713        1.50064
H         -2.94064       -2.03220        0.42481
H         -3.56758       -0.45607       -0.12008
H          2.94064        2.03220       -0.42481
H          2.85044        0.61713       -1.50065
H          3.56758        0.45607        0.12007
