13
1,4-PENTADIENE.gamout	Energy:    -195.0190304
C          0.83460        1.58291        1.44911
C          1.11142        1.19927        2.88255
C          2.53899        0.76797        3.11620
C          0.35236        2.76034        1.04306
C          3.38083        1.32400        3.99136
H          1.05293        0.81146        0.69791
H          0.44694        0.35134        3.14659
H          0.84845        2.03023        3.55785
H          2.88812       -0.07624        2.50596
H          0.16925        2.96870       -0.01514
H          0.12323        3.56273        1.75309
H          4.40372        0.95601        4.11399
H          3.07960        2.16981        4.61921
