16
1,4-BUTANEDIOL.gamout	Energy:    -308.4622073
C          1.64245        0.45299        2.57897
C          1.59596        1.47653        1.45364
O          0.53341        2.37411        1.70831
C          2.76043       -0.57556        2.41226
C          2.80691       -1.59909        3.53760
O          3.86946       -2.49667        3.28295
H          0.65919       -0.04816        2.62610
H          1.75727        0.99845        3.53270
H          1.46247        0.95153        0.48383
H          2.57152        2.00486        1.39674
H          0.50343        3.02344        0.99516
H          3.74369       -0.07442        2.36513
H          2.64561       -1.12102        1.45853
H          1.83135       -2.12742        3.59448
H          2.94039       -1.07409        4.50741
H          3.89937       -3.14605        3.99605
