36
1,4-DI-tert-BUTYLBENZENE.gamout	Energy:    -545.9764601
C         -1.66873        1.49414        0.77741
C         -0.29266        1.22352        0.83021
C          0.26910        0.11282        0.18924
C         -0.62782       -0.71694       -0.51026
C         -2.55898        0.66756        0.08161
C         -1.99311       -0.44960       -0.56182
C         -4.07326        0.92581       -0.00069
C         -4.49341        2.19148        0.76421
H         -4.00796        3.09498        0.36317
H         -5.58213        2.33592        0.67863
H         -4.25252        2.12209        1.83649
C         -4.83394       -0.27395        0.60291
H         -4.56211       -0.42459        1.65968
H         -4.61608       -1.20919        0.06501
H         -5.92250       -0.10597        0.55160
C         -4.49014        1.09857       -1.47659
H         -5.57470        1.28251       -1.55009
H         -3.96742        1.95036       -1.93930
H         -4.26251        0.20214       -2.07287
C          1.77063       -0.21942        0.21803
C          2.32313       -0.22885       -1.22317
H          1.81882       -0.97891       -1.85101
H          3.40018       -0.46530       -1.22276
H          2.18999        0.75363       -1.70232
C          1.98436       -1.60974        0.85177
H          1.47182       -2.40202        0.28542
H          3.05791       -1.85959        0.87612
H          1.60534       -1.63989        1.88565
C          2.58142        0.80206        1.03069
H          2.25888        0.83904        2.08293
H          2.50032        1.81769        0.61344
H          3.64696        0.52417        1.02077
H         -2.03086        2.37889        1.30174
H         -2.63042       -1.13652       -1.12306
H         -0.25876       -1.60117       -1.03403
H          0.33812        1.91333        1.39196
