18
1,4-NAPHTHOQUINONE.gamout	Energy:    -534.4239334
C          3.87107        4.40943        2.05480
O          4.59163        5.39285        2.08274
C          3.98388        3.30735        3.06115
C          2.83011        4.25661        1.00340
C          3.13420        2.18203        3.00017
C          4.94626        3.39851        4.07462
C          2.01939        3.18406        0.94420
C          2.09961        2.06691        1.92491
C          3.25892        1.16324        3.95396
C          5.06465        2.37945        5.02128
O          1.34903        1.10991        1.84126
C          4.22104        1.26194        4.96092
H          2.76866        5.07597        0.28148
H          5.59025        4.28019        4.09821
H          1.25404        3.07207        0.17104
H          2.58936        0.30303        3.88538
H          5.81730        2.45472        5.81036
H          4.31654        0.46578        5.70383
