14
1,4-DIOXANE.gamout	Energy:    -307.2535706
C          1.60783        3.19808        1.21365
C          1.00759        1.88392        1.70385
O          1.75026        0.78230        1.21399
C          3.11481        0.87536        1.57933
C          3.71518        2.18998        1.09022
O          2.97209        3.29140        1.57996
H          1.08806        4.05992        1.66196
H          1.50177        3.25917        0.10981
H         -0.02771        1.76658        1.34581
H          0.99877        1.87744        2.81432
H          3.63415        0.01409        1.12943
H          3.22181        0.81272        2.68299
H          3.72505        2.19709       -0.02024
H          4.75010        2.30719        1.44939
