24
1,4-DIMETHYLNAPHTHALENE.gamout	Energy:    -463.8828858
C          4.61116        4.80438        1.49802
C          4.63578        6.24098        1.02172
C          3.39628        4.09331        1.79067
C          5.81301        4.13620        1.65270
C          3.46374        2.71914        2.22820
C          2.10730        4.69114        1.66722
C          5.87627        2.79254        2.08214
C          4.73478        2.06901        2.37271
C          2.24646        2.03312        2.51048
C          0.95061        3.99480        1.95002
C          4.83147        0.63391        2.82943
C          1.01972        2.64837        2.37635
H          4.99751        6.30446       -0.01884
H          5.32150        6.84370        1.63923
H          3.65521        6.73118        1.05292
H          6.74769        4.66340        1.43652
H          2.02662        5.72896        1.34195
H          6.85549        2.31584        2.18722
H          2.28832        0.99390        2.84097
H         -0.02102        4.48497        1.84455
H          4.39286        0.49142        3.83176
H          5.88162        0.30986        2.87576
H          4.30046       -0.05223        2.14766
H          0.10170        2.09788        2.59900
