12
1,4-BUTANOLIDE.gamout	Energy:    -306.0967538
O          0.03047       -1.11090       -0.05078
O          2.00005       -0.03029       -0.04949
C         -1.47140        0.70219       -0.24461
C         -0.10436        1.21969        0.20515
C         -1.35987       -0.79262        0.09065
C          0.80628        0.00647        0.02028
H         -2.32677        1.18503        0.24984
H         -1.59031        0.83609       -1.33226
H         -0.09470        1.48246        1.27812
H          0.28654        2.08368       -0.34912
H         -1.66991       -1.00704        1.12951
H         -1.93108       -1.44697       -0.58373
