14
1,4-CYCLOHEXADIENE.gamout	Energy:    -233.0922329
C          1.72406        3.46847        0.89956
C          1.08552        2.10495        0.87745
C          1.78237        0.96220        0.86961
C          3.28738        0.90603        0.88135
C          3.92596        2.26971        0.88513
C          3.22911        3.41245        0.89334
H          1.37224        4.03514        1.78596
H          1.36520        4.06759        0.03797
H         -0.00972        2.06818        0.86782
H          1.24824        0.00551        0.85361
H          3.64979        0.32165        0.01116
H          3.63557        0.32434        1.75940
H          5.02123        2.30658        0.88094
H          3.76327        4.36926        0.89581
