22
1,5-DIMETHYLCYCLOHEXENE.gamout	Energy:    -312.8317003
C         -7.68406       -0.40706        0.52768
C         -6.28651       -0.28020       -0.10191
C         -8.65127        0.56439       -0.16382
C         -8.18796       -1.85187        0.49843
C         -5.83654        1.14872       -0.33073
C         -6.70585        2.17230       -0.28175
C         -4.37240        1.34250       -0.62411
C         -8.18280        2.01770       -0.02266
H         -7.59979       -0.09292        1.58637
H         -6.26416       -0.82158       -1.07053
H         -5.54315       -0.79870        0.53245
H         -9.66918        0.44985        0.24651
H         -8.71147        0.30005       -1.23645
H         -8.31642       -2.20353       -0.54017
H         -7.48144       -2.53720        0.99611
H         -9.16220       -1.95032        1.00547
H         -6.33256        3.19169       -0.43933
H         -4.12368        2.39831       -0.81143
H         -3.74671        0.98583        0.21445
H         -4.06569        0.75664       -1.51010
H         -8.41930        2.39442        0.99300
H         -8.75036        2.66967       -0.71111
