22
1,5-NAPHTHALENE_DIISOCYANATE.gamout	Energy:    -719.9420742
C          1.35633        1.30449       -0.02620
C          2.49267        0.50935        0.00763
C          2.37884       -0.89689        0.07085
C          1.14009       -1.50366        0.09991
C         -0.04358       -0.71889        0.06637
C         -1.35000       -1.31233        0.09460
C         -2.48634       -0.51719        0.06078
C         -2.37251        0.88905       -0.00244
C         -1.13376        1.49581       -0.03150
C          0.04991        0.71104        0.00204
N         -1.43453       -2.69954        0.15603
C         -2.17994       -3.64530        0.19735
O         -2.81115       -4.63225        0.24039
N          1.44085        2.69170       -0.08763
C          2.18627        3.63746       -0.12888
O          2.81747        4.62441       -0.17200
H          3.47875        0.97908       -0.01452
H          3.28737       -1.50376        0.09690
H          1.04962       -2.58969        0.14893
H         -3.47241       -0.98694        0.08293
H         -3.28103        1.49592       -0.02849
H         -1.04327        2.58184       -0.08053
