24
1,5-DIMETHYLNAPHTHALENE.gamout	Energy:    -463.8859760
C          4.61637        4.93443        0.79104
C          4.56113        6.44152        0.71798
C          3.40963        4.15374        0.80967
C          5.83748        4.28435        0.84131
C          3.48995        2.71826        0.88328
C          2.12308        4.76389        0.75934
C          5.92158        2.87420        0.91284
C          2.28320        1.93768        0.90573
C          4.77643        2.10806        0.93445
C          0.97801        3.99754        0.77797
C          2.33858        0.43080        0.98276
C          1.06211        2.58751        0.85193
H          5.57400        6.86959        0.69973
H          4.03046        6.87464        1.58317
H          4.03448        6.79006       -0.18675
H          6.75841        4.87452        0.82426
H          2.04364        5.85060        0.70490
H          6.90342        2.39468        0.95295
H          4.85573        1.02139        0.98988
H         -0.00390        4.47716        0.74086
H          1.32547        0.00307        0.99917
H          2.86502        0.08310        1.88772
H          2.86740       -0.00381        0.11702
H          0.14127        1.99713        0.86572
