19
1,5-DIMETHYLCYCLOPENTENE.gamout	Energy:    -273.5664991
C          0.54568        2.19731        2.98149
C          1.95448        2.65777        2.57272
C          2.83255        1.53180        2.04008
C          2.78106        3.24909        3.75572
C          2.42779        0.71707        0.84808
C          3.96312        1.40523        2.75161
C          4.07977        2.40396        3.87332
H         -0.03663        3.03759        3.39449
H          0.59664        1.40964        3.75241
H         -0.02018        1.79533        2.12514
H          1.83153        3.41727        1.77567
H          2.19727        3.21505        4.68983
H          3.01474        4.31063        3.57951
H          3.20289       -0.01326        0.56971
H          2.23722        1.36452       -0.02729
H          1.49111        0.16210        1.03270
H          4.73765        0.66013        2.54298
H          4.16878        1.90637        4.85698
H          4.98983        3.02362        3.77093
