20
1,5-CYCLOOCTADIENE.gamout	Energy:    -311.5896029
C          4.28159        2.22783        1.86937
C          2.12750        1.66229        4.13499
C          3.26422        2.30776        0.99782
C          1.18050        2.25926        3.39496
C          1.95275        1.55305        0.99346
C          0.87322        2.14853        1.92207
H          3.38135        3.03502        0.18432
H          0.49964        2.93240        3.93235
H          1.54875        1.57016       -0.03241
H          2.10300        0.48986        1.22895
H         -0.05755        1.55850        1.80370
H          0.61237        3.15960        1.55814
C          4.45718        1.36504        3.09416
C          3.20506        0.69393        3.69768
H          2.14317        1.92180        5.20114
H          5.14026        2.88249        1.67072
H          4.93690        1.98482        3.87408
H          5.20121        0.57699        2.86295
H          3.53253        0.12007        4.58054
H          2.80809       -0.05316        2.99577
