19
1,5_DIMETHYL_2_PYRROLIDINONE.gamout	Energy:    -364.7684274
C          0.11114        2.05200       -0.16860
N          0.03493        0.61448       -0.04925
C          1.17157       -0.15620        0.05744
C          0.75188       -1.61588       -0.10749
C         -0.77442       -1.59026        0.02259
C         -1.17423       -0.14718       -0.36191
C         -2.42043        0.35867        0.36049
O          2.29972        0.26562        0.21976
H          1.16389        2.33817       -0.03500
H         -0.23098        2.39264       -1.16406
H         -0.49583        2.56409        0.59705
H          1.07997       -1.94150       -1.11038
H          1.26920       -2.25336        0.62367
H         -1.28510       -2.33404       -0.60695
H         -1.07181       -1.78322        1.06697
H         -1.36539       -0.09117       -1.45585
H         -2.26733        0.36009        1.45239
H         -2.69324        1.37916        0.04820
H         -3.27758       -0.29568        0.13312
