22
1,6-DIMETHYLCYCLOHEXENE.gamout	Energy:    -312.8285333
C         -7.70541       -0.31022        0.62957
C         -6.27107       -0.29082        0.07008
C         -8.65591        0.58017       -0.17057
C         -5.82515        1.12197       -0.30437
C         -5.31006       -0.98844        1.04780
C         -6.69725        2.14427       -0.37477
C         -4.36795        1.32204       -0.64066
C         -8.18025        2.03589       -0.13089
H         -8.07331       -1.35048        0.65595
H         -7.68234        0.03912        1.67934
H         -6.26255       -0.88612       -0.86717
H         -9.68535        0.49778        0.21646
H         -8.68310        0.23509       -1.22043
H         -5.68793       -1.99168        1.30533
H         -5.21476       -0.41668        1.98684
H         -4.30061       -1.11714        0.62826
H         -6.31565        3.13645       -0.64636
H         -4.17894        2.34089       -1.01117
H         -3.71156        1.15485        0.23088
H         -4.03770        0.61145       -1.42067
H         -8.43168        2.49261        0.84772
H         -8.72222        2.64065       -0.88016
