22
1,6-HEXANEDIOL.gamout	Energy:    -386.9747752
O         -0.05781        9.02878       -0.00009
C          1.16270        8.31553        0.00012
C          2.30627        9.32003       -0.00009
C          3.69186        8.67122        0.00009
C          4.84141        9.68449       -0.00013
C          6.22699        9.03567        0.00008
C          7.37057       10.04017       -0.00011
O          8.59107        9.32690        0.00013
H         -0.78526        8.39455       -0.00001
H          1.25072        7.65888        0.89201
H          1.25078        7.65847       -0.89147
H          2.19020        9.97246       -0.88374
H          2.19014        9.97288        0.88324
H          3.79246        8.01210        0.88260
H          3.79252        8.01165       -0.88207
H          4.74081       10.34360       -0.88265
H          4.74075       10.34408        0.88202
H          6.34306        8.38323        0.88372
H          6.34313        8.38283       -0.88325
H          7.28259       10.69681       -0.89201
H          7.28250       10.69724        0.89146
H          9.31853        9.96112        0.00005
