24
1,6-DIMETHYLNAPHTHALENE.gamout	Energy:    -463.8876256
C          5.54376        4.03814        1.16155
C          5.55853        5.54512        1.07515
C          4.30364        3.31421        1.14716
C          6.72922        3.32835        1.25587
C          4.31922        1.88058        1.23053
C          3.03546        3.95736        1.05254
C          6.74640        1.91377        1.33834
C          3.08628        1.16871        1.21543
C          5.56704        1.20267        1.32603
C          1.86248        3.23354        1.04084
C          1.86573        1.81163        1.12286
C          0.56114        1.05325        1.10672
H          6.58860        5.93047        1.09861
H          5.08844        5.90693        0.14456
H          5.00977        6.00870        1.91286
H          7.67804        3.87290        1.26726
H          2.98972        5.04619        0.98755
H          7.70435        1.39168        1.41177
H          3.11968        0.07638        1.27961
H          5.57261        0.11066        1.38916
H          0.90530        3.75923        0.96683
H         -0.08619        1.35381        1.94850
H         -0.00476        1.25175        0.18026
H          0.72327       -0.03276        1.17676
