20
1,6-DIBROMOHEXANE.gamout	Energy:   -5382.9955111
Br        -0.02500       -0.11974       -0.00011
C          1.63947        0.93490        0.00009
C          1.37352        2.43233       -0.00005
C          2.67608        3.24597        0.00013
C          2.44010        4.76034        0.00001
Br         5.14119        8.12604        0.00018
C          3.47672        7.07140        0.00002
C          3.74266        5.57397        0.00017
H          2.19146        0.61394        0.89411
H          2.19176        0.61379       -0.89370
H          0.76839        2.69723       -0.88415
H          0.76810        2.69732        0.88383
H          3.28213        2.97138        0.88321
H          3.28244        2.97131       -0.88272
H          1.83404        5.03491       -0.88307
H          1.83377        5.03503        0.88288
H          2.92445        7.39250        0.89382
H          2.92472        7.39238       -0.89399
H          4.34779        5.30909        0.88428
H          4.34808        5.30896       -0.88371
