22
1,7-OCTADIENE.gamout	Energy:    -312.7827474
C         -0.13869        0.08340       -0.00621
C          1.06113        0.65692       -0.13542
C          2.39102       -0.06592       -0.09377
H          2.40815       -0.84993       -0.87402
H          2.48328       -0.60939        0.86522
C          3.60177        0.85533       -0.27323
H          3.58432        1.63650        0.50992
H          3.50846        1.39423       -1.23470
C          4.94419        0.12337       -0.23034
H          4.96163       -0.65782       -1.01348
H          5.03750       -0.41551        0.73115
C          6.15493        1.04462       -0.40983
H          6.13780        1.82864        0.37040
H          6.06265        1.58807       -1.36884
C          7.48482        0.32178       -0.36817
C          8.68464        0.89530       -0.49741
H         -0.24870       -0.99658        0.14536
H         -1.06050        0.67079       -0.04655
H          1.10522        1.74440       -0.28547
H          7.44073       -0.76569       -0.21809
H          8.79465        1.97527       -0.64901
H          9.60646        0.30792       -0.45705
