29
1,9-DIBROMONONANE.gamout	Energy:   -5500.7645189
C        103.98771       10.04128        0.00074
C        102.69016        9.22611        0.00028
C        102.91878        7.71183        0.00077
C        103.76416       11.55697        0.00011
C        101.62659        6.88711        0.00011
C        105.07146       12.36337        0.00043
C        101.88477        5.37366        0.00048
C        104.81419       13.86205       -0.00032
C        100.59736        4.56588       -0.00035
Br       106.48386       14.91007       -0.00010
Br       100.93985        2.62260       -0.00001
H        104.59316        9.76233        0.88316
H        104.59404        9.76178       -0.88089
H        102.08439        9.50535       -0.88226
H        102.08336        9.50583        0.88197
H        103.52470        7.43394        0.88322
H        103.52575        7.43356       -0.88083
H        103.16024       11.83709       -0.88310
H        103.15932       11.83774        0.88249
H        101.01923        7.15952       -0.88315
H        101.01804        7.15981        0.88247
H        105.67465       12.09484        0.88475
H        105.67547       12.09413       -0.88312
H        102.48592        5.10038        0.88489
H        102.48715        5.10021       -0.88305
H        104.26452       14.18601       -0.89468
H        104.26375       14.18679        0.89328
H         99.98661        4.75315       -0.89421
H         99.98534        4.75327        0.89261
