23
1-(3-CYANOPROPYL)MIM+1.gamout	Energy:    -475.4439967
C         -7.47741       -1.66610       -0.03493
N         -6.02877       -1.42650       -0.01535
H         -7.98875       -0.69954       -0.11678
H         -7.78932       -2.16183        0.89572
H         -7.74448       -2.28840       -0.90052
C         -5.40839       -0.19499       -0.01750
C         -4.05975       -0.42065        0.01771
H         -5.96622        0.73788       -0.04336
N         -3.87790       -1.78963        0.04158
H         -3.23580        0.28565        0.02706
C         -5.08425       -2.37465        0.02048
H         -5.26550       -3.44843        0.02972
C         -2.59699       -2.53745        0.08065
C         -1.36831       -1.63529        0.13348
H         -2.56638       -3.17838       -0.81438
H         -2.63195       -3.19307        0.96511
C         -0.07522       -2.47344        0.18677
H         -1.40959       -0.98483        1.02212
H         -1.33446       -0.98357       -0.75476
C          1.11355       -1.62020        0.22929
H         -0.00125       -3.13448       -0.69385
H         -0.07067       -3.12613        1.07663
N          2.03243       -0.91636        0.26129
