29
1-BROMONONANE.gamout	Energy:   -2927.6326443
C          3.49236        0.52397        0.00000
C          4.80941       -0.25937        0.00026
C          4.61468       -1.77919        0.00002
C          3.67042        2.04526        0.00019
C          5.93310       -2.56781        0.00018
C          2.34823        2.81976       -0.00012
C          5.68997       -4.06871       -0.00010
C          2.51671        4.34262        0.00006
Br         7.36668       -5.10609        0.00005
C          1.19007        5.10419       -0.00028
H          2.89454        0.22679       -0.88209
H          2.89407        0.22661        0.88172
H          5.40898        0.03285        0.88243
H          5.40944        0.03306       -0.88153
H          4.01532       -2.06971       -0.88287
H          4.01494       -2.06993        0.88258
H          4.26746        2.34425        0.88224
H          4.26796        2.34441       -0.88146
H          6.53277       -2.29132        0.88443
H          6.53313       -2.29106       -0.88374
H          1.75166        2.51910       -0.88220
H          1.75114        2.51895        0.88156
H          5.14294       -4.39746       -0.89428
H          5.14258       -4.39774        0.89375
H          3.11313        4.64178        0.88172
H          3.11365        4.64192       -0.88120
H          1.34745        6.19501       -0.00013
H          0.58500        4.85567       -0.88895
H          0.58445        4.85551        0.88797
