32
1-BROMODECANE.gamout	Energy:   -2966.8887589
C         69.03219       11.03547       -0.00028
C         70.33054       10.21650       -0.00001
C         69.24589       12.55480        0.00011
C         70.10283        8.69933       -0.00029
C         71.39329        7.86852       -0.00001
C         71.13558        6.35318       -0.00019
C         72.42397        5.54574        0.00010
Br        72.08023        3.60173       -0.00013
C         67.94489       13.36859       -0.00011
C         68.15626       14.88669        0.00024
C         66.85318       15.68847        0.00004
H         68.42644       10.75283       -0.88193
H         68.42584       10.75247        0.88085
H         70.93720       10.49594        0.88204
H         70.93778       10.49623       -0.88159
H         69.85109       12.83813        0.88200
H         69.85166       12.83858       -0.88125
H         69.49494        8.42252       -0.88199
H         69.49445        8.42224        0.88099
H         72.00258        8.13778        0.88289
H         72.00317        8.13785       -0.88249
H         70.53437        6.07712       -0.88374
H         70.53391        6.07696        0.88301
H         73.03577        5.73347        0.89330
H         73.03628        5.73356       -0.89274
H         67.33899       13.08600       -0.88195
H         67.33841       13.08571        0.88125
H         68.76099       15.17013        0.88155
H         68.76149       15.17053       -0.88061
H         67.04833       16.77262        0.00031
H         66.23974       15.46205       -0.88890
H         66.23920       15.46173        0.88854
