11
1-BROMOPROPANE.gamout	Energy:   -2692.0951153
C         -0.12818       -0.08701       -0.06904
C          1.40162       -0.18813       -0.06903
C          2.05783        1.18459       -0.06898
Br         4.02860        1.07264       -0.06860
H         -0.58438       -1.08953       -0.06915
H         -0.49892        0.44785       -0.95947
H         -0.49894        0.44765        0.82150
H          1.74559       -0.75205       -0.95203
H          1.74558       -0.75212        0.81394
H          1.79562        1.76812        0.82423
H          1.79598        1.76801       -0.96237
