38
1-BROMODODECANE.gamout	Energy:   -3045.4012647
C        103.04076       10.99249        0.00070
C        101.74284       10.17246        0.00020
C        102.81305       12.50999        0.00039
C        104.10292       13.34159        0.00067
C        103.85773       14.85629        0.00022
C        105.14680       15.69312        0.00031
C        104.85314       17.18618       -0.00015
Br       106.49932       18.27234       -0.00016
C        101.95409        8.65234        0.00046
C        100.64875        7.84332       -0.00014
C        100.84561        6.32210        0.00004
C         99.53422        5.52633       -0.00062
C         99.73347        4.00970       -0.00053
H        103.64768       10.71377        0.88277
H        103.64843       10.71353       -0.88078
H        101.13724       10.45551       -0.88151
H        101.13632       10.45572        0.88121
H        102.20422       12.78579       -0.88138
H        102.20356       12.78614        0.88160
H        104.71251       13.07039        0.88290
H        104.71314       13.07006       -0.88105
H        103.24856       15.12709       -0.88236
H        103.24809       15.12766        0.88231
H        105.75879       15.44351        0.88416
H        105.75923       15.44308       -0.88311
H        104.29483       17.49808       -0.89364
H        104.29456       17.49869        0.89294
H        102.55836        8.36743        0.88243
H        102.55920        8.36723       -0.88089
H        100.04550        8.13131       -0.88189
H        100.04448        8.13136        0.88091
H        101.44636        6.02949        0.88211
H        101.44726        6.02934       -0.88138
H         98.93419        5.81905       -0.88208
H         98.93321        5.81903        0.88020
H         98.76864        3.47791       -0.00108
H        100.29550        3.67609        0.88849
H        100.29650        3.67607       -0.88892
