35
1-BROMOUNDECANE.gamout	Energy:   -3006.1451835
C         -0.15771       -0.15087        0.00015
C          1.19005        0.57308       -0.00003
C          1.06471        2.10096        0.00012
C          2.40787        2.84209       -0.00007
C          2.27382        4.37078        0.00002
C          3.61190        5.12345       -0.00012
C          3.46206        6.65073       -0.00004
C          5.95166        9.71501       -0.00018
C          4.62328        8.94055       -0.00006
C          5.72228       11.21850       -0.00004
C          4.79278        7.41564       -0.00015
Br         7.40850       12.23938       -0.00006
H         -0.02824       -1.24492        0.00004
H         -0.75597        0.11341        0.88888
H         -0.75628        0.11357       -0.88832
H          1.77720        0.25597       -0.88175
H          1.77756        0.25581        0.88141
H          0.47583        2.41645        0.88239
H          0.47551        2.41662       -0.88189
H          2.99659        2.52647       -0.88218
H          2.99691        2.52645        0.88185
H          1.68358        4.68363        0.88209
H          1.68335        4.68382       -0.88186
H          4.20354        4.81366       -0.88226
H          4.20384        4.81362        0.88181
H          2.86896        6.95758        0.88215
H          2.86873        6.95771       -0.88206
H          6.54958        9.43403        0.88397
H          6.54945        9.43421       -0.88450
H          4.02934        9.24216       -0.88290
H          4.02965        9.24212        0.88301
H          5.17841       11.55396       -0.89389
H          5.17860       11.55386        0.89396
H          5.38772        7.11369       -0.88244
H          5.38796        7.11359        0.88195
