14
1-BROMOBUTANE.gamout	Energy:   -2731.3513957
C         -0.08470       -0.06113       -0.04369
C          1.45017        0.00252       -0.04403
C         -0.73811        1.32277       -0.04361
C          2.08172       -1.38081       -0.04257
Br         4.05502       -1.30360       -0.04465
H         -0.42698       -0.63235        0.83853
H         -0.42731       -0.63243       -0.92573
H          1.80264        0.56347        0.83846
H          1.80236        0.56146       -0.92791
H         -0.44069        1.90378        0.84529
H         -1.83731        1.24877       -0.04338
H         -0.44105        1.90373       -0.93267
H          1.81162       -1.95849        0.85185
H          1.80976       -1.96128       -0.93462
