15
1-BUTANETHIOL.gamout	Energy:    -556.2338573
C         18.00981       10.03478       -0.00010
C         19.29393        9.19598        0.00009
C         19.02150        7.69212       -0.00011
C         18.27400       11.54130        0.00010
S         20.61546        6.76571        0.00020
H         17.40148        9.76669       -0.88338
H         17.40106        9.76651        0.88283
H         19.90332        9.45444        0.88507
H         19.90370        9.45461       -0.88457
H         18.44031        7.40884       -0.89238
H         18.43983        7.40867        0.89180
H         17.33350       12.11600       -0.00002
H         18.85080       11.84796        0.88904
H         18.85117       11.84814       -0.88853
H         20.07661        5.52391       -0.00001
