20
1-CHLOROHEXANE.gamout	Energy:    -696.1344170
C         -0.02077       -0.06141       -0.04077
C          1.51083       -0.02133       -0.04081
C          2.07673        1.40419       -0.04094
C         -0.60623       -1.47739       -0.04070
C          3.59740        1.42972       -0.04087
C         -2.13595       -1.50269       -0.03983
Cl         4.24170        3.12465       -0.04355
H         -0.39777        0.48981        0.84117
H         -0.39780        0.48974       -0.92273
H          1.88954       -0.57013        0.84187
H          1.88953       -0.57026       -0.92340
H          1.71100        1.95697        0.84180
H          1.71112        1.95680       -0.92382
H         -0.22790       -2.02787        0.84047
H         -0.22892       -2.02751       -0.92252
H          4.01339        0.93774        0.85066
H          4.01351        0.93479       -0.93071
H         -2.54453       -0.99395        0.84983
H         -2.52439       -2.53400       -0.04042
H         -2.54556       -0.99256       -0.92823
