14
1-CHLOROBUTANE.gamout	Energy:    -617.6218786
C          2.51864        0.84577        1.18146
C          2.77193        2.21579        1.82496
C          1.56710        2.72103        2.60409
C          3.72021        0.32393        0.39178
Cl         1.87733        4.34117        3.35550
H          2.24708        0.11770        1.96748
H          1.64025        0.91445        0.51383
H          3.63979        2.16013        2.50485
H          3.03174        2.95536        1.04785
H          0.68579        2.84196        1.95726
H          1.29851        2.04109        3.42574
H          3.50891       -0.65861       -0.05965
H          3.99353        1.01433       -0.42362
H          4.60602        0.21042        1.03900
