11
1-CHLOROPROPANE.gamout	Energy:    -578.3655647
C          1.62911        1.91446        1.05785
Cl        -0.03816        2.16134        1.72233
C          2.44095        0.94487        1.90484
C          3.84918        0.72947        1.34281
H          1.50338        1.54662        0.02870
H          2.10078        2.90733        1.01252
H          2.49496        1.33230        2.93638
H          1.89981       -0.01470        1.96254
H          4.41954        1.67274        1.30426
H          4.41709        0.02322        1.96864
H          3.81717        0.31657        0.32047
