16
1-CHLORO-2,4-DINITROBENZENE.gamout	Energy:   -1099.8426532
C          6.37321        1.89147       -0.68685
C          6.90139        0.65203       -0.33901
C          4.98471        2.09444       -0.74176
C          6.02686       -0.40059       -0.06413
C          4.64792       -0.24103       -0.12828
N          6.57708       -1.72582        0.29816
C          4.13029        1.01277       -0.45100
N          2.65308        1.12919       -0.46099
Cl         4.41607        3.65224       -1.22911
O          2.16792        2.18161       -0.09456
O          2.03427        0.13909       -0.81233
O          5.77957       -2.61541        0.53704
O          7.79108       -1.83335        0.33196
H          7.03205        2.72751       -0.92579
H          7.97713        0.48525       -0.28414
H          3.97995       -1.07813        0.07021
