18
1-CHLORONAPHTHALENE.gamout	Energy:    -844.7724363
C          5.71806        0.52884        1.93416
C          4.55766        0.44316        1.10237
C          6.85554        1.19599        1.52877
Cl         5.71259       -0.22859        3.51627
C          3.36416       -0.23383        1.47856
C          4.61665        1.08325       -0.18495
C          6.89399        1.81950        0.25791
C          2.27920       -0.27864        0.62759
C          3.47582        1.01455       -1.03444
C          5.80144        1.76541       -0.57994
C          2.33339        0.35080       -0.64122
H          7.72017        1.23821        2.19343
H          3.32184       -0.71852        2.45487
H          7.80187        2.34454       -0.04985
H          1.37059       -0.80364        0.93384
H          3.52510        1.50234       -2.01200
H          5.83042        2.24666       -1.56115
H          1.46693        0.30809       -1.30638
