50
1-CHLOROHEXADECANE.gamout	Energy:   -1088.6966133
C        122.05961       10.05186        0.00086
C        123.35016        9.22151        0.00148
C        123.11309        7.70561        0.00107
C        122.28609       11.56930        0.00112
C        124.39854        6.86730        0.00137
C        120.98905       12.39046        0.00030
C        124.15325        5.35232        0.00085
C        121.20229       13.91025        0.00044
C        125.43564        4.50856        0.00080
C        119.89847       14.72156       -0.00050
C        125.18421        2.99481        0.00007
C        120.09821       16.24246       -0.00045
C        126.46884        2.15515       -0.00015
C        118.78867       17.04118       -0.00146
C        126.18064        0.66027       -0.00092
C        118.99135       18.55733       -0.00148
Cl       127.70348       -0.31863       -0.00122
H        121.45140        9.77506       -0.88107
H        121.45030        9.77487        0.88198
H        123.95934        9.49586        0.88349
H        123.96028        9.49618       -0.87980
H        122.50281        7.43333       -0.88086
H        122.50203        7.43289        0.88234
H        122.89322       11.84812        0.88314
H        122.89429       11.84829       -0.88013
H        125.00945        7.13793        0.88332
H        125.01011        7.13836       -0.88002
H        120.38323       12.10832       -0.88161
H        120.38193       12.10835        0.88134
H        123.54159        5.08337       -0.88118
H        123.54115        5.08271        0.88238
H        121.80697       14.19432        0.88248
H        121.80816       14.19435       -0.88079
H        126.04771        4.77535        0.88280
H        126.04811        4.77605       -0.88072
H        119.29484       14.43475       -0.88243
H        119.29347       14.43489        0.88055
H        124.57451        2.72545       -0.88271
H        124.57423        2.72449        0.88238
H        120.69945       16.53390        0.88172
H        120.70071       16.53386       -0.88179
H        127.08395        2.39805        0.88372
H        127.08420        2.39889       -0.88362
H        118.18809       16.74995       -0.88307
H        118.18673       16.75015        0.87930
H        125.61369        0.35499       -0.89260
H        125.61343        0.35405        0.89028
H        118.02777       19.09144       -0.00227
H        119.55398       18.88996        0.88756
H        119.55531       18.88980       -0.88974
