26
1-CHLOROOCTANE.gamout	Energy:    -774.6468854
C         51.98133        0.01274       -0.00010
C         53.33415        0.73091        0.00006
C         54.53988       -0.21514       -0.00013
C         50.77974        0.96320        0.00010
C         55.88495        0.52159        0.00008
C         49.42225        0.25281       -0.00008
C         57.07259       -0.42987       -0.00015
C         48.23138        1.21288        0.00013
Cl        58.64853        0.46372        0.00014
H         51.91993       -0.65177       -0.88253
H         51.91991       -0.65215        0.88203
H         53.39562        1.39486        0.88243
H         53.39565        1.39524       -0.88203
H         54.48200       -0.87861       -0.88330
H         54.48196       -0.87901        0.88273
H         50.84247        1.62789        0.88246
H         50.84250        1.62831       -0.88195
H         55.95579        1.17785        0.88460
H         55.95584        1.17833       -0.88409
H         49.35968       -0.41113       -0.88202
H         49.35965       -0.41155        0.88154
H         57.07914       -1.07266       -0.89254
H         57.07911       -1.07314        0.89190
H         47.27166        0.67107       -0.00003
H         48.24313        1.86666        0.88896
H         48.24319        1.86710       -0.88837
