6
1-CHLORO-2,2-DIFLUOROETHYLENE.gamout	Energy:    -736.1311644
C         32.01392       17.99119       -0.00000
C         30.68091       17.99308        0.00000
F         29.96440       19.09900        0.00000
F         29.91575       16.92736       -0.00000
Cl        32.93846       16.52933        0.00000
H         32.56478       18.93114       -0.00000
