23
1-CHLOROHEPTANE.gamout	Energy:    -735.3905232
C         -0.03479       -0.10666        0.00017
C          1.25738        0.71136       -0.00011
C          1.02480        2.22572        0.00008
C          2.31554        3.05097       -0.00016
C          2.07919        4.56474        0.00005
C          3.37621        5.38383       -0.00014
C          3.11471        6.88287        0.00010
Cl         4.65434        7.83707       -0.00017
H          0.17026       -1.18955        0.00003
H         -0.65105        0.11358        0.88874
H         -0.65153        0.11371       -0.88803
H          1.86595        0.43823       -0.88190
H          1.86645        0.43808        0.88128
H          0.41644        2.50105        0.88240
H          0.41599        2.50121       -0.88188
H          2.92386        2.77743       -0.88243
H          2.92429        2.77726        0.88177
H          1.47194        4.83881        0.88307
H          1.47155        4.83899       -0.88264
H          3.98472        5.12731       -0.88450
H          3.98512        5.12710        0.88389
H          2.55384        7.19766        0.89215
H          2.55339        7.19787       -0.89159
