14
1-CHLORO-2-METHYLPROPANE.gamout	Energy:    -617.6228533
Cl        -1.78047       -0.03263       -0.07191
C         -0.15488       -0.71985        0.34903
C          1.00223        0.03053       -0.31343
C          1.09808        1.48673        0.15400
C          2.31046       -0.73298       -0.05628
H         -0.07780       -0.68714        1.44660
H         -0.18038       -1.77168        0.03116
H          0.80716        0.02505       -1.40133
H          0.16462        2.03181       -0.05014
H          1.29236        1.53912        1.23974
H          1.92112        2.01019       -0.35850
H          2.25935       -1.77110       -0.42367
H          3.15503       -0.23932       -0.56315
H          2.54722       -0.76755        1.02145
