33
1-DECANOL.gamout	Energy:    -468.8780260
C          3.92907        4.03521        3.38483
C          5.32655        3.64773        2.89153
C          5.39022        3.30891        1.39883
C          3.87625        4.39833        4.87246
C          6.78713        2.90437        0.91719
C          2.47746        4.76790        5.37537
C          6.85759        2.59086       -0.57885
C          2.43117        5.15079        6.85859
C          8.24494        2.17663       -1.04726
C          1.02914        5.50427        7.35783
O          8.19439        1.92175       -2.43713
H          3.22881        3.20164        3.18747
H          3.55355        4.88763        2.78768
H          5.69240        2.78306        3.47718
H          6.03082        4.47345        3.10725
H          5.03924        4.17801        0.81131
H          4.67799        2.49202        1.17734
H          4.56753        5.24033        5.06612
H          4.26476        3.55032        5.46774
H          7.50096        3.71499        1.15742
H          7.12790        2.02413        1.49480
H          1.79002        3.91900        5.19779
H          2.07997        5.60520        4.77071
H          6.15112        1.78148       -0.83596
H          6.54362        3.46978       -1.16975
H          3.11129        6.00487        7.03390
H          2.83767        4.31667        7.46011
H          8.97110        2.98287       -0.80702
H          8.57394        1.27915       -0.48034
H          1.03519        5.77944        8.42513
H          0.60587        6.35563        6.79771
H          0.33485        4.65510        7.23765
H          9.07504        1.66085       -2.73272
