33
1-DECANETHIOL.gamout	Energy:    -791.7727813
S          6.58853       -0.71374        0.28560
C         -0.07758        0.37228        0.10255
C         -1.37613       -0.44051        0.09126
C          1.18995       -0.48607        0.16098
C         -2.64448        0.41520        0.01549
C          2.48976        0.32519        0.15287
C         -3.94200       -0.39861       -0.01286
C          3.75380       -0.54197        0.19780
C         -5.21079        0.45531       -0.10373
C          5.04390        0.27621        0.16812
C         -6.50109       -0.36553       -0.14153
H         -0.08856        1.07052        0.96071
H         -0.04189        1.01062       -0.80049
H         -1.41734       -1.07830        0.99430
H         -1.35819       -1.13905       -0.76666
H          1.16142       -1.12248        1.06521
H          1.19438       -1.18516       -0.69652
H         -2.59752        1.05411       -0.88668
H         -2.66835        1.11326        0.87364
H          2.51407        0.96157       -0.75186
H          2.49222        1.02413        1.01041
H         -3.99473       -1.03648        0.88985
H         -3.91324       -1.09796       -0.87011
H          3.74939       -1.24082       -0.65903
H          3.74891       -1.17298        1.10371
H         -5.24326        1.15316        0.75343
H         -5.15428        1.09267       -1.00558
H          5.09585        0.95679        1.03423
H          5.09160        0.91075       -0.73196
H         -6.61161       -0.98450        0.76518
H         -7.39112        0.28091       -0.21169
H         -6.51843       -1.04710       -1.00928
H          6.42363       -1.39610       -0.87244
