28
1-DECYNE.gamout	Energy:    -391.2841016
C          7.19982        0.76847        0.93222
C          5.93523        1.63322        0.94803
C          4.63386        0.82502        0.95785
C          8.49811        1.57929        0.92438
C          3.36811        1.68783        0.97393
C          9.75782        0.69148        0.90760
C          2.06607        0.88009        0.98440
C         11.01261        1.44457        0.90044
C          0.80689        1.74838        1.00125
C         12.04334        2.08262        0.89440
H          7.17717        0.10589        0.04660
H          7.19344        0.09763        1.81190
H          5.94189        2.30356        0.06824
H          5.95947        2.29651        1.83282
H          4.62845        0.15475        1.83799
H          4.61066        0.16110        0.07323
H          8.53601        2.23655        1.81048
H          8.51936        2.24637        0.04506
H          3.37283        2.35859        0.09396
H          3.39109        2.35180        1.85872
H          9.73107        0.02974        0.02239
H          9.74769        0.01973        1.78563
H          2.06255        0.21016        1.86394
H          2.04374        0.21691        0.10007
H          0.75905        2.40470        0.11560
H         -0.10902        1.13549        1.00915
H          0.77866        2.39815        1.89256
H         12.95860        2.64363        0.88912
