36
1-DODECENE.gamout	Energy:    -471.0417686
C          7.94058        3.93125        1.66463
C          8.79509        2.74777        1.19040
C         10.28113        2.86066        1.55408
C         11.12725        1.66623        1.07755
C         12.58846        1.80267        1.40289
C         13.30157        0.95864        2.15422
C          6.45535        3.81519        1.29511
C          5.59282        4.99121        1.77349
C          4.11041        4.87245        1.39393
C          3.24055        6.04134        1.87385
C          1.76226        5.91796        1.48615
C          0.89945        7.08542        1.96931
H          8.34982        4.86789        1.24091
H          8.03493        4.03306        2.76237
H          8.69604        2.64434        0.09308
H          8.38835        1.81116        1.61641
H         10.38774        2.96189        2.64954
H         10.69361        3.79247        1.12379
H         11.01089        1.56925       -0.01975
H         10.73627        0.73046        1.51467
H         13.08835        2.68846        0.98581
H         14.36323        1.12818        2.35361
H         12.85102        0.06303        2.59683
H          6.05085        2.87394        1.71339
H          6.36008        3.71846        0.19685
H          6.00064        5.93313        1.36006
H          5.68017        5.08439        2.87267
H          3.70642        3.92727        1.80382
H          4.02243        4.78252        0.29446
H          3.64439        6.98822        1.46739
H          3.32028        6.12986        2.97416
H          1.35924        4.97134        1.89159
H          1.68111        5.83098        0.38673
H          1.25053        8.04546        1.55373
H          0.92076        7.17513        3.06891
H         -0.15236        6.95824        1.66757
