69
1-DOCOSANOL.gamout	Energy:    -939.9530168
O        -11.52947        8.63554       -0.00150
C         -0.58239       -0.10593        0.00081
C          0.95006       -0.18260        0.00078
C         -1.14041        1.32492        0.00092
C          1.50979       -1.61278        0.00057
C         -2.67316        1.40065        0.00094
C          3.04284       -1.68523        0.00048
C         -3.23599        2.83002        0.00090
C          3.61056       -3.11264        0.00019
C         -4.76953        2.89919        0.00078
C          5.14451       -3.17512        0.00010
C         -5.34121        4.32517        0.00059
C          5.72359       -4.59806       -0.00017
C         -6.87551        4.38281        0.00035
C          7.25826       -4.64779       -0.00017
C         -7.45873        5.80431        0.00001
C          7.84942       -6.06543       -0.00048
C         -8.99299        5.85002       -0.00032
C          9.38343       -6.10437       -0.00058
C         -9.57968        7.26501       -0.00076
C          9.97893       -7.51711       -0.00086
C        -11.10147        7.28834       -0.00115
C         11.50879       -7.53674       -0.00099
H         -0.97284       -0.64911        0.88248
H         -0.97287       -0.64889       -0.88100
H          1.34009        0.36095       -0.88086
H          1.34023        0.36068        0.88252
H         -0.74997        1.86789        0.88271
H         -0.74999        1.86796       -0.88084
H          1.12029       -2.15631       -0.88130
H          1.12041       -2.15658        0.88233
H         -3.06254        0.85665       -0.88076
H         -3.06263        0.85663        0.88258
H          3.43070       -1.13989       -0.88105
H          3.43081       -1.14021        0.88218
H         -2.84780        3.37454       -0.88092
H         -2.84794        3.37466        0.88272
H          3.22464       -3.65888        0.88197
H          3.22462       -3.65864       -0.88173
H         -5.15607        2.35301       -0.88083
H         -5.15630        2.35315        0.88239
H          5.52850       -2.62720        0.88173
H          5.52843       -2.62693       -0.88140
H         -4.95688        4.87229       -0.88129
H         -4.95715        4.87256        0.88242
H          5.34218       -5.14749        0.88158
H          5.34216       -5.14717       -0.88214
H         -7.25729        3.83321       -0.88126
H         -7.25766        3.83350        0.88197
H          7.63750       -4.09627       -0.88160
H          7.63753       -4.09663        0.88149
H         -7.07949        6.35471       -0.88181
H         -7.07987        6.35508        0.88176
H          7.47258       -6.61774       -0.88243
H          7.47270       -6.61817        0.88126
H         -9.37059        5.29846       -0.88228
H         -9.37103        5.29886        0.88173
H          9.76117       -5.55222        0.88128
H          9.76109       -5.55191       -0.88230
H         -9.22928        7.82870       -0.88386
H         -9.22975        7.82907        0.88228
H          9.60491       -8.07080       -0.88218
H          9.60507       -8.07116        0.88031
H        -11.48004        6.74117        0.88919
H        -11.47961        6.74084       -0.89147
H         11.89775       -8.56720       -0.00124
H         11.91804       -7.02698       -0.89008
H         11.91823       -7.02738        0.88825
H        -12.49405        8.64847       -0.00174
