22
1-ETHYL-3-ETHENYLBENZENE.gamout	Energy:    -387.7385420
C          6.52840        2.60854        1.54527
C          5.20138        2.66774        0.77202
C          4.00648        2.96729        1.65351
C          3.29700        1.93180        2.27939
C          3.60049        4.28779        1.89657
C          2.20694        2.17512        3.13538
C          2.51827        4.55474        2.74325
C          1.51488        1.02786        3.75115
C          1.82648        3.51362        3.35828
C          0.48789        1.05598        4.61392
H          6.50427        1.82480        2.31986
H          6.73662        3.56555        2.05093
H          7.37156        2.39133        0.86899
H          5.27374        3.43821       -0.01425
H          5.04044        1.70689        0.25388
H          3.59711        0.89488        2.09426
H          4.13139        5.11482        1.41523
H          2.20922        5.58891        2.91901
H          1.90784        0.04797        3.45375
H          0.98021        3.74127        4.01032
H          0.03774        1.98853        4.96627
H          0.05807        0.12956        5.00320
