21
1-ETHOXYBUTANE.gamout	Energy:    -311.8502476
O         -1.22924       -0.24546        0.00050
C          1.15745       -0.33096        0.00086
C          2.47437        0.44964        0.00697
C         -0.07639        0.56095        0.00617
C          3.71106       -0.45141        0.00124
C         -2.44272        0.46876        0.00420
C         -3.59579       -0.51959       -0.00245
H          1.10626       -0.98592       -0.88705
H          1.10522       -0.99768        0.87991
H          2.50563        1.10930        0.89381
H          2.50673        1.12146       -0.87067
H         -0.06786        1.22281        0.90045
H         -0.06725        1.23433       -0.87944
H          3.72947       -1.11094        0.88539
H          3.73033       -1.09819       -0.89222
H          4.64191        0.13848        0.00597
H         -2.50238        1.12714        0.89802
H         -2.50137        1.13783       -0.88170
H         -4.56258        0.00834        0.00029
H         -3.54825       -1.15998       -0.89730
H         -3.54914       -1.17072        0.88465
