24
1-ETHYLNAPHTHALENE.gamout	Energy:    -463.8819516
C          5.46318        4.41831        2.13930
C          6.26574        4.65296        0.84861
C          3.95987        4.44982        1.94672
C          3.25260        5.60057        2.25466
C          1.85246        5.69556        2.06295
C          1.14882        4.62315        1.56270
C          1.81936        3.41104        1.23710
C          1.10887        2.28640        0.72905
C          1.76059        1.11324        0.41418
C          3.16188        1.01425        0.59822
C          3.87974        2.08549        1.09022
C          3.24314        3.31704        1.42486
H          5.73618        5.19500        2.87265
H          5.76905        3.46121        2.59520
H          6.04919        3.88662        0.08748
H          7.34943        4.63184        1.05003
H          6.02173        5.63242        0.40656
H          3.79140        6.46352        2.65787
H          1.33689        6.62659        2.31359
H          0.06702        4.68451        1.41385
H          0.02650        2.37091        0.59459
H          1.20080        0.25736        0.02769
H          3.67651        0.08267        0.34760
H          4.95759        1.98487        1.22720
