19
1-ETHYLCYCLOPENTENE.gamout	Energy:    -273.5656826
C          1.05011        3.33279        1.02598
C          1.63144        2.25105        1.95082
C          3.10220        2.00262        1.75917
C          4.15635        3.04013        2.10920
C          3.68075        0.87037        1.32569
C          5.45481        2.46989        1.48975
C          5.18844        0.95453        1.30474
H          1.54075        4.30824        1.17648
H         -0.02708        3.47321        1.21237
H          1.17735        3.05647       -0.03348
H          1.45255        2.54903        3.00208
H          1.08106        1.30731        1.79787
H          4.23054        3.13995        3.21057
H          3.91519        4.04792        1.72944
H          3.13129       -0.03763        1.05820
H          6.34832        2.67772        2.09879
H          5.62083        2.93379        0.50351
H          5.63129        0.55776        0.37437
H          5.62394        0.35533        2.12904
