22
1-ETHYLCYCLOHEXENE.gamout	Energy:    -312.8290821
C          4.34911        0.97526        2.46147
C          5.77451        1.06711        1.90505
C          6.28326        2.51049        1.95006
C          3.42588        2.05906        1.93559
C          3.91478        3.15095        1.32173
C          1.95084        1.80959        2.16775
C          5.38422        3.42494        1.10903
C          0.97880        2.90137        1.72565
H          4.37068        1.03277        3.56833
H          3.91348       -0.01511        2.23365
H          5.78158        0.71374        0.85737
H          6.44594        0.39658        2.46736
H          7.32705        2.56995        1.59878
H          6.28195        2.86085        2.99860
H          3.22319        3.90847        0.93921
H          1.68240        0.85673        1.67049
H          1.80674        1.60725        3.24760
H          5.59826        4.48517        1.33533
H          5.62455        3.30557        0.03329
H          1.18267        3.85721        2.23521
H          1.03644        3.08351        0.64018
H         -0.05929        2.61451        1.95780
