18
1-FLUORONAPHTHALENE.gamout	Energy:    -484.4977342
C          5.80165        1.75627       -0.56111
F          5.84109        2.34888       -1.76714
C          4.60521        1.08242       -0.19345
C          6.90060        1.82021        0.26227
C          4.56685        0.45077        1.09520
C          3.47003        1.01785       -1.04716
C          6.84647        1.19111        1.53219
C          5.71097        0.52324        1.94068
C          3.37443       -0.22780        1.47588
C          2.33323        0.35030       -0.64084
C          2.28532       -0.27725        0.63037
H          7.79287        2.35209       -0.07386
H          3.51738        1.50412       -2.02317
H          7.72011        1.24181        2.18716
H          5.67402        0.03996        2.92048
H          3.33613       -0.71197        2.45583
H          1.46250        0.30291       -1.30022
H          1.37750       -0.80280        0.93881
