8
1-FLUORO-1,2,2-TRICHLOROETHANE.gamout	Energy:   -1557.0270380
C         17.98018       20.02964       -0.01550
C         19.28341       20.83313       -0.02379
Cl        16.54369       21.08143       -0.06734
Cl        18.00562       18.87434       -1.39429
F         19.33411       21.67656       -1.07383
Cl        19.45330       21.75662        1.50931
H         17.92627       19.43270        0.90200
H         20.13574       20.13757       -0.06907
