24
1-HEPTANOL.gamout	Energy:    -351.1093992
C          3.13356       -0.52778        0.00000
C          1.88928        0.34873        0.00000
C          0.58098       -0.44477        0.00000
C         -0.67243        0.43680        0.00000
C         -1.98565       -0.35150       -0.00000
C         -3.23924        0.53022        0.00000
C         -4.54792       -0.26246       -0.00000
O          4.27267        0.30956       -0.00000
H          3.11667       -1.19255        0.89034
H          3.11667       -1.19256       -0.89034
H          1.93582        1.01081        0.88291
H          1.93582        1.01081       -0.88291
H          0.55411       -1.11196       -0.88228
H          0.55411       -1.11196        0.88228
H         -0.64678        1.10425        0.88170
H         -0.64678        1.10425       -0.88169
H         -2.01118       -1.01939       -0.88201
H         -2.01119       -1.01940        0.88201
H         -3.21212        1.19749        0.88124
H         -3.21212        1.19750       -0.88124
H         -4.62368       -0.91162       -0.88895
H         -4.62368       -0.91163        0.88894
H         -5.42520        0.40487        0.00000
H          5.06206       -0.24570       -0.00000
