54
1-HEPTADECANOL.gamout	Energy:    -743.6717932
C          7.76468        0.56681        0.00053
C          6.45872       -0.23960        0.00022
C          6.66444       -1.76019        0.00044
C          7.56471        2.08824        0.00028
C          5.36019       -2.56939        0.00011
C          8.87528        2.88775        0.00044
C          5.56660       -4.09022        0.00027
C          8.68700        4.41104        0.00016
C          4.26218       -4.89996       -0.00008
C         10.00549        5.19865        0.00019
C          4.46750       -6.42102        0.00005
C          9.83361        6.72356       -0.00014
C          3.16390       -7.23110       -0.00033
C         11.15899        7.49194       -0.00016
C          3.37192       -8.74984       -0.00024
C         10.99003        9.00515       -0.00047
C          2.06743       -9.54942       -0.00063
O         12.27342        9.59514       -0.00046
H          8.36781        0.27891        0.88233
H          8.36833        0.27870       -0.88084
H          5.85514        0.04705       -0.88169
H          5.85453        0.04726        0.88166
H          7.26849       -2.04602        0.88230
H          7.26900       -2.04622       -0.88101
H          6.96235        2.37738       -0.88163
H          6.96194        2.37771        0.88182
H          4.75618       -2.28332       -0.88173
H          4.75555       -2.28324        0.88151
H          9.47667        2.59595        0.88213
H          9.47709        2.59573       -0.88090
H          6.17074       -4.37584        0.88215
H          6.17127       -4.37602       -0.88121
H          8.08696        4.70500       -0.88180
H          8.08670        4.70538        0.88182
H          3.65818       -4.61367       -0.88187
H          3.65755       -4.61363        0.88127
H         10.60403        4.90146        0.88176
H         10.60433        4.90114       -0.88110
H          5.07138       -6.70725        0.88197
H          5.07193       -6.70742       -0.88144
H          9.23784        7.02443       -0.88249
H          9.23769        7.02488        0.88197
H          2.55883       -6.94703       -0.88230
H          2.55820       -6.94704        0.88123
H         11.76156        7.21464        0.88310
H         11.76179        7.21434       -0.88317
H          3.97582       -9.03471        0.88119
H          3.97636       -9.03479       -0.88128
H         10.39942        9.31034       -0.89116
H         10.39924        9.31073        0.88996
H          2.26079      -10.63388       -0.00058
H          1.45421       -9.32176       -0.88945
H          1.45364       -9.32181        0.88782
H         12.16936       10.55427       -0.00062
