22
1-HEPTANAL.gamout	Energy:    -349.9090399
C          3.60514        1.53830        3.14414
C          2.63444        2.67530        2.80887
C          2.07897        2.60775        1.38306
C          4.15767        1.60991        4.57774
C          1.11105        3.74582        1.04092
C          5.13791        0.49799        4.86879
C          0.56076        3.67254       -0.38433
O          5.01660       -0.32802        5.73762
H          4.44471        1.55234        2.42468
H          3.09874        0.56658        3.00031
H          3.14643        3.64473        2.95772
H          1.79752        2.66435        3.53112
H          1.56786        1.63740        1.23635
H          2.91788        2.61513        0.66186
H          3.35060        1.56689        5.32659
H          4.69694        2.56793        4.71136
H          0.27427        3.73824        1.76327
H          1.62481        4.71372        1.18956
H          6.02942        0.47685        4.18128
H          0.00899        2.73195       -0.55279
H         -0.12918        4.50528       -0.59587
H          1.37223        3.71470       -1.13060
