48
1-HEXADECENE.gamout	Energy:    -628.0604583
C          6.84314        5.63062        7.17011
C          5.52470        6.34435        7.50762
C          4.25694        5.68581        6.94964
C          7.24593        5.65380        5.68897
C          2.96856        6.39709        7.38003
C          8.60054        4.98893        5.40782
C          1.65756        5.87764        6.77088
C          9.02647        5.02281        3.93238
C          1.23742        4.44213        7.14516
C         10.37836        4.35147        3.65590
C          1.72092        3.34185        6.19129
C         10.80766        4.39576        2.17750
C          1.27040        1.93312        6.59048
C         12.15396        3.77549        1.93070
C          1.73277        0.83864        5.62650
C         12.39805        2.72977        1.13595
H          7.65164        6.09682        7.76168
H          6.78763        4.58037        7.51546
H          5.43528        6.40556        8.60732
H          5.57562        7.39198        7.15377
H          4.23365        4.63129        7.27968
H          4.30024        5.65919        5.84560
H          7.27584        6.70422        5.34105
H          6.46950        5.15681        5.07927
H          3.05836        7.46796        7.12173
H          2.88933        6.36462        8.48371
H          8.56832        3.93740        5.75132
H          9.38106        5.47931        6.02039
H          0.85776        6.56748        7.08734
H          1.70448        5.96743        5.66882
H          9.06560        6.07442        3.58956
H          8.24751        4.53534        3.31583
H          0.13451        4.39970        7.18472
H          1.57547        4.21381        8.17435
H         10.34384        3.29659        3.98443
H         11.16011        4.83385        4.27245
H          2.82259        3.36467        6.11784
H          1.34950        3.56643        5.17308
H         10.04819        3.89569        1.55039
H         10.83354        5.45375        1.85027
H          0.16670        1.91141        6.66451
H          1.64215        1.70541        7.60710
H         12.99557        4.23158        2.47131
H          1.34763        1.00937        4.60637
H          2.83353        0.79668        5.55710
H          1.38410       -0.15463        5.95015
H         13.40885        2.33152        1.01457
H         11.59829        2.23466        0.57388
