19
1-HEXANAL.gamout	Energy:    -310.6527138
C          2.60852        0.20607       -0.28767
C          1.30188       -0.54969       -0.22353
C          0.08380        0.37818       -0.09227
C         -1.25070       -0.37313       -0.05609
C         -2.47088        0.54359        0.07753
C         -3.80028       -0.21278        0.11440
O          3.55455        0.01956        0.43507
H          2.64861        0.99808       -1.08748
H          1.21518       -1.13231       -1.16182
H          1.36252       -1.26718        0.61079
H          0.18718        0.98709        0.82426
H          0.07621        1.09626       -0.93357
H         -1.34952       -0.98507       -0.97262
H         -1.23975       -1.09291        0.78377
H         -2.36698        1.15445        0.99314
H         -2.47862        1.26329       -0.76204
H         -4.65497        0.47577        0.21130
H         -3.95092       -0.80373       -0.80504
H         -3.83897       -0.91350        0.96583
