49
1-HEPTADECYNE.gamout	Energy:    -666.0753483
C         -0.39278        3.40589        3.79909
C          1.08769        3.02443        3.74849
C          2.00276        4.01482        4.47768
C          3.49049        3.64296        4.43797
C          4.39572        4.64528        5.16505
C          7.87027        2.86871        5.88992
C          6.34925        3.07618        5.81920
C          8.56280        2.60538        4.54593
C          5.90155        4.34838        5.08903
C         12.27496        1.76765        3.47252
C         10.77274        2.05120        3.33853
C         12.97974        1.49015        2.13653
C         10.06607        2.32569        4.67426
C         15.15759        0.93108        0.91128
C         14.47913        1.20496        2.26857
C         16.59130        0.65731        1.01238
C         17.77774        0.43240        1.11413
H         -0.76141        3.45696        4.83803
H         -1.01661        2.67297        3.26291
H         -0.57142        4.39280        3.33914
H          1.40873        2.94213        2.69340
H          1.22098        2.01630        4.18264
H          1.86652        5.02212        4.03998
H          1.67724        4.09985        5.53212
H          3.81600        3.56020        3.38328
H          3.61824        2.63537        4.87336
H          4.08999        4.70679        6.22717
H          4.21856        5.65134        4.74398
H          8.07186        2.01674        6.56406
H          8.33596        3.74957        6.37200
H          5.88863        2.18905        5.34705
H          5.95605        3.10557        6.85153
H          8.41579        3.46798        3.87092
H          8.07360        1.74552        4.04970
H          6.44594        5.20936        5.51704
H          6.20430        4.29760        4.02701
H         12.42336        0.90377        4.14759
H         12.76565        2.62540        3.96985
H         10.62597        2.91551        2.66334
H         10.28457        1.19307        2.83877
H         12.49001        0.63204        1.63852
H         12.83412        2.35417        1.46087
H         10.21865        1.46180        5.34885
H         10.55460        3.18449        5.17248
H         15.00601        1.79563        0.23859
H         14.66286        0.07541        0.41558
H         14.64141        0.33552        2.92955
H         14.98549        2.05772        2.75362
H         18.82886        0.23278        1.19974
