21
1-HEPTENE.gamout	Energy:    -274.7573198
C          3.34502        0.82104        1.30380
C          4.55824        1.74558        1.42949
C          5.89369        1.00161        1.53717
C          2.00801        1.56136        1.18996
C          7.09526        1.91493        1.65817
C          0.80169        0.63019        1.05997
C          8.36646        1.51608        1.76036
H          3.31171        0.14076        2.17620
H          3.47518        0.16662        0.42098
H          4.43297        2.39943        2.31277
H          4.59328        2.42484        0.55702
H          6.01745        0.34564        0.65519
H          5.86218        0.31694        2.40553
H          2.04533        2.24038        0.31799
H          1.87920        2.21545        2.07203
H          6.88586        2.99348        1.65963
H         -0.14078        1.19543        0.97709
H          0.71314       -0.03796        1.93366
H          0.88527       -0.01032        0.16537
H          8.63834        0.45424        1.76404
H          9.18671        2.23479        1.84449
