21
1-HEXANOL.gamout	Energy:    -311.8532232
C          4.95441        2.12107        0.80793
C          3.64757        1.61860        1.43105
C          2.41325        1.89294        0.56874
C          6.19444        1.86067        1.66997
C          1.11573        1.39018        1.18520
C          7.49314        2.36872        1.04040
O          0.05064        1.70619        0.31046
H          5.09112        1.64594       -0.18156
H          4.86904        3.20615        0.61059
H          3.73169        0.53226        1.62288
H          3.51614        2.09071        2.42288
H          2.30890        2.97725        0.38620
H          2.52752        1.42399       -0.42468
H          6.05467        2.33491        2.65891
H          6.27901        0.77585        1.86625
H          1.18933        0.29527        1.35983
H          0.97689        1.85986        2.18263
H          7.67991        1.88664        0.06575
H          7.45496        3.45759        0.86636
H          8.36395        2.16531        1.68465
H         -0.77185        1.38799        0.70209
