20
1-IODOHEXANE.gamout	Energy:    -533.8305276
C         -0.04201       -0.07482        0.00006
C          1.30961        0.64302       -0.00018
C          1.18826        2.17133        0.00015
C          2.53652        2.90429       -0.00004
C          2.39556        4.43678        0.00019
C          3.74791        5.13334       -0.00006
I          3.57251        7.31865        0.00019
H          0.08316       -1.16915       -0.00022
H         -0.63785        0.19269        0.88909
H         -0.63838        0.19310       -0.88850
H          1.89563        0.32410       -0.88168
H          1.89617        0.32375        0.88085
H          0.60141        2.48982        0.88197
H          0.60100        2.49019       -0.88127
H          3.12349        2.58961       -0.88271
H          3.12395        2.58941        0.88227
H          1.81615        4.75435        0.88395
H          1.81576        4.75460       -0.88324
H          4.34090        4.90863       -0.89571
H          4.34138        4.90857        0.89525
