30
1-METHYL-4-ISOPROPYLCYCLOHEXANE.gamout	Energy:    -392.5592847
C          2.95662        0.95430        5.15335
C          3.14725        1.70097        3.82719
C          2.08542        1.73124        6.15193
C          1.81542        2.08347        3.15015
C          0.93392        2.84553        4.16099
C          2.02215        2.86744        1.82505
C          0.75016        2.09469        5.48621
C          1.88953        0.96496        7.46245
C          0.69515        3.25338        1.15252
C          2.89740        2.10144        0.81998
H          3.94146        0.73395        5.60201
H          2.48009       -0.02598        4.95849
H          3.75828        1.08115        3.15278
H          3.72783        2.62572        4.01185
H          2.60961        2.67952        6.38589
H          1.28881        1.14065        2.89307
H         -0.05689        3.05296        3.72753
H          1.39820        3.83087        4.36041
H          2.55121        3.80665        2.08279
H          0.18101        1.16278        5.30276
H          0.13608        2.70025        6.17612
H          1.37034        0.00588        7.28920
H          2.85540        0.73624        7.94317
H          1.28555        1.54274        8.18197
H          0.08384        2.35897        0.93642
H          0.08722        3.93242        1.76867
H          0.87980        3.76348        0.19287
H          2.45508        1.11806        0.58010
H          2.98813        2.66018       -0.12588
H          3.91825        1.92663        1.19089
