22
1-METHYLINDANE.gamout	Energy:    -387.7589259
C          0.84255        3.13703        1.42662
C          2.12778        2.35741        1.11285
C          3.38325        3.00407        1.67245
C          2.14257        0.91604        1.71770
C          4.10044        2.12658        2.49792
C          3.85437        4.30244        1.44829
C          3.42314        0.77717        2.58869
C          5.28793        2.54238        3.10937
C          5.04248        4.71845        2.05860
C          5.75590        3.84206        2.88753
H          0.69331        3.22701        2.51573
H         -0.03963        2.62932        1.00238
H          0.87405        4.15593        1.00757
H          2.21820        2.29773        0.01205
H          2.12158        0.15772        0.92011
H          1.23732        0.75044        2.32374
H          3.30136        4.99134        0.80260
H          4.08568       -0.02506        2.21950
H          3.18615        0.51785        3.63526
H          5.84871        1.85929        3.75465
H          5.41743        5.73160        1.88861
H          6.68355        4.17612        3.36067
