22
1-METHYL-4-ISOPROPENYLBENZENE.gamout	Energy:    -387.7403920
C          5.58121        5.59295        2.06381
C          5.70875        4.11617        1.76305
C          6.92250        3.54073        1.67835
C          4.45112        3.33700        1.58127
C          3.24230        3.74718        2.17322
C          4.41590        2.16143        0.80239
C          2.06694        3.00698        2.01855
C          3.24248        1.42724        0.64856
C          2.04013        1.83256        1.25445
C          0.76828        1.04303        1.05949
H          5.13446        5.76658        3.05795
H          6.56608        6.08231        2.05540
H          4.93289        6.09981        1.32930
H          7.83621        4.13101        1.79237
H          7.05009        2.46809        1.51343
H          3.21340        4.65225        2.78348
H          5.32154        1.82987        0.28923
H          1.14978        3.35321        2.50493
H          3.25555        0.52203        0.03306
H         -0.01002        1.34631        1.77628
H          0.35810        1.18866        0.04439
H          0.94210       -0.03832        1.18461
