24
1-METHYL-3-PROPYLBENZENE.gamout	Energy:    -388.9618822
C          1.78442        4.73662        1.93477
C          0.66058        5.71170        1.58153
C          2.61010        4.29123        0.71268
C          3.72512        3.32811        1.05889
C          3.50268        1.94271        1.08105
C          4.53049        1.06527        1.43724
C          5.79265        1.55753        1.77642
C          6.04649        2.93874        1.76522
C          7.40283        3.47969        2.15242
C          5.00187        3.80151        1.40150
H          1.36319        3.84154        2.42585
H          2.46267        5.19728        2.67482
H          0.08931        6.00894        2.47586
H         -0.05016        5.26329        0.86649
H          1.05496        6.63238        1.11841
H          3.03260        5.18618        0.22280
H          1.93307        3.82364       -0.02382
H          2.51875        1.54845        0.80898
H          4.34818       -0.01313        1.44265
H          6.59302        0.86216        2.04734
H          8.21703        2.84170        1.77301
H          7.51397        3.52703        3.25042
H          7.55883        4.49756        1.76343
H          5.19015        4.88046        1.37794
