21
1-METHYLNAPHTHALENE.gamout	Energy:    -424.6275212
C          2.05614        1.20838        3.71229
C          0.61557        0.83395        3.46414
C          2.74274        2.11209        2.82962
C          2.74086        0.68652        4.79612
C          4.11558        2.44919        3.09377
C          2.11544        2.69599        1.69072
C          4.09400        1.01812        5.05683
C          4.76918        1.88139        4.22408
C          4.79078        3.34435        2.21686
C          2.79911        3.56114        0.85995
C          4.15134        3.89025        1.12382
H         -0.04508        1.71757        3.47850
H          0.48186        0.35092        2.48106
H          0.25403        0.13410        4.23183
H          2.22464       -0.00180        5.47206
H          1.07392        2.45550        1.46950
H          4.59522        0.58157        5.92496
H          5.81339        2.14309        4.41739
H          5.83494        3.59321        2.42816
H          2.29637        3.99672       -0.00789
H          4.68320        4.57621        0.45908
