24
1-METHYL-1-ETHYLCYCLOPENTANE.gamout	Energy:    -314.0360827
C          1.73475        1.77827        1.28117
C          0.78620        0.95290        2.15505
C          2.98459        2.35699        1.97951
C          2.57954        3.32550        3.10864
C          3.94330        1.26118        2.51406
C          3.90394        3.08202        0.96274
C          5.33416        1.92755        2.61346
C          5.30977        3.11047        1.60222
H          1.17175        2.61376        0.82500
H          2.07669        1.14981        0.43849
H          1.29884        0.09332        2.61783
H          0.33976        1.54832        2.96799
H         -0.04654        0.55140        1.55453
H          2.03635        2.80637        3.91425
H          3.45449        3.81112        3.56933
H          1.92548        4.12585        2.72246
H          3.97367        0.43265        1.78426
H          3.61167        0.83019        3.47265
H          3.53065        4.08656        0.70162
H          3.92877        2.49740        0.02674
H          6.14031        1.20909        2.39574
H          5.51820        2.29561        3.63555
H          5.48651        4.06687        2.12008
H          6.10083        3.02214        0.84111
