22
1-METHYLCYCLOHEXANOL.gamout	Energy:    -349.9228664
C         -3.85109        1.01253        1.10791
C         -5.09196        1.89815        1.29367
C         -4.09109       -0.08611        0.06370
C         -5.59458        2.51206       -0.03384
C         -5.81134        1.39299       -1.07805
C         -6.87656        3.31332        0.18422
O         -4.64425        3.46464       -0.52318
C         -4.57242        0.50611       -1.26803
H         -3.55756        0.57007        2.07460
H         -2.99276        1.63729        0.79360
H         -5.90394        1.29193        1.73429
H         -4.88142        2.71814        1.99990
H         -3.17476       -0.68150       -0.08873
H         -4.85825       -0.78503        0.44629
H         -6.65801        0.76379       -0.74959
H         -6.10538        1.85882       -2.03326
H         -7.68648        2.67516        0.56983
H         -6.69314        4.12575        0.90441
H         -7.20591        3.76601       -0.76408
H         -3.80597        3.01389       -0.68397
H         -4.79176       -0.29635       -1.99192
H         -3.75670        1.10109       -1.72256
