18
1-METHYL-1-ETHYLCYCLOPROPANE.gamout	Energy:    -235.4975475
C          2.63419       -1.32283        1.70420
C          1.75249       -0.27238        1.02132
C          1.18062        0.78905        1.95861
C          0.21741        0.27381        3.01565
C          2.07022        1.95741        2.32102
C          0.90818        2.15646        1.37538
H          3.04974       -2.03099        0.96908
H          3.48059       -0.85111        2.23079
H          2.07049       -1.91310        2.44457
H          0.91540       -0.77551        0.50156
H          2.33834        0.23244        0.23353
H          0.70463       -0.43704        3.70379
H         -0.18517        1.09700        3.62746
H         -0.63908       -0.24366        2.54916
H          1.99405        2.37644        3.32935
H          3.08218        1.98770        1.90392
H          1.12828        2.32255        0.31584
H          0.03629        2.71041        1.73824
