19
1-METHYLCYCLOHEXENE.gamout	Energy:    -273.5740331
C          0.40759        2.13513        1.10222
C          1.90774        2.10738        1.23578
C          2.60317        3.45484        1.24383
C          2.60231        0.96018        1.33079
C          4.05567        3.38381        1.73193
C          4.10531        0.87781        1.43782
C          4.79331        2.20482        1.08958
H          0.09937        2.69417        0.19986
H         -0.01846        1.12218        1.03866
H         -0.05977        2.65048        1.96129
H          2.56313        3.88091        0.22114
H          2.02608        4.16166        1.86823
H          2.05387        0.00996        1.33597
H          4.57401        4.33404        1.52073
H          4.06450        3.25862        2.83021
H          4.38358        0.56530        2.46435
H          4.48019        0.07002        0.78347
H          4.80065        2.33719       -0.00781
H          5.84877        2.18268        1.40919
