20
1-METHYLINDENE.gamout	Energy:    -386.5440922
C          2.20416        0.73683        4.70395
C          1.98462        2.07168        3.97032
C          3.21892        2.63008        3.28450
C          0.99610        1.98905        2.82450
C          2.93712        2.82905        1.91225
C          4.47324        2.94537        3.79849
C          1.54927        2.41620        1.66924
C          3.91232        3.34568        1.05277
C          5.45208        3.46307        2.93484
C          5.17239        3.66101        1.57661
H          2.95439        0.84421        5.50338
H          1.26796        0.38418        5.16645
H          2.55677       -0.03959        4.00663
H          1.61483        2.81024        4.71066
H         -0.02507        1.62092        2.94656
H          4.70260        2.79438        4.85769
H          1.05396        2.46003        0.69685
H          3.69610        3.50319       -0.00774
H          6.44163        3.71501        3.32584
H          5.94668        4.06655        0.91939
