24
1-METHYL-4-PROPYLBENZENE.gamout	Energy:    -388.9619553
C          1.88319        4.79402        1.51815
C          0.87426        5.90363        1.81636
C          3.17112        4.90457        2.35630
C          4.17764        3.81220        2.06922
C          5.13354        3.95136        1.05055
C          6.03995        2.92820        0.76341
C          6.02673        1.72156        1.48079
C          6.98739        0.60412        1.15158
C          5.07434        1.58398        2.50298
C          4.16859        2.60763        2.79017
H          1.42224        3.80742        1.70223
H          2.15030        4.80855        0.44646
H          0.56500        5.89244        2.87557
H          1.29944        6.90051        1.60909
H         -0.03596        5.79745        1.20405
H          3.63332        5.89044        2.17148
H          2.90102        4.88360        3.42696
H          5.17583        4.88287        0.47709
H          6.77837        3.07188       -0.03158
H          7.22971        0.00282        2.04188
H          6.55774       -0.08403        0.40146
H          7.93108        0.98955        0.73465
H          5.04527        0.66048        3.08970
H          3.44300        2.47220        3.59850
