16
1-METHOXY-2-PROPANOL.gamout	Energy:    -308.4564857
O          3.21622       -0.71973        0.84683
O          0.43122       -0.81007        0.11592
C          1.02395        0.23795        0.86733
C          2.46280        0.37416        0.39248
C          0.24284        1.54367        0.70504
C          4.53885       -0.72577        0.38823
H          1.06758       -0.03344        1.94204
H          2.46342        0.42587       -0.71733
H          2.89045        1.32838        0.76935
H         -0.79737        1.41304        1.04632
H          0.68786        2.36401        1.29154
H          0.21109        1.84308       -0.35548
H         -0.39536       -1.06055        0.54676
H          5.03864       -1.61184        0.80789
H          5.09894        0.17815        0.70988
H          4.59818       -0.78051       -0.71888
