27
1-METHYL-1-ETHYLCYCLOHEXANE.gamout	Energy:    -353.2998059
C          1.66943        3.09525        1.12394
C          0.85118        1.96247        1.75991
C          1.70985        0.71164        1.98512
C          2.96171        3.47198        1.89856
C          3.77662        2.17679        2.15923
C          2.59791        4.16575        3.22696
C          3.77329        4.44708        1.00316
C          2.96458        1.04160        2.80202
C          5.10125        4.97157        1.55690
H          1.04113        3.99582        1.00221
H          1.95947        2.78301        0.10337
H         -0.01094        1.72315        1.11411
H          0.42643        2.29442        2.72424
H          2.01509        0.30095        1.00406
H          1.12013       -0.07690        2.48381
H          4.65384        2.40673        2.78674
H          4.17336        1.81667        1.19116
H          2.06894        5.11552        3.03840
H          3.49401        4.39659        3.82505
H          1.94188        3.54694        3.85727
H          3.96730        3.93943        0.04070
H          3.12245        5.30776        0.76218
H          2.66919        1.32330        3.82872
H          3.60154        0.14596        2.90356
H          5.81183        4.15843        1.77643
H          4.96650        5.55441        2.48226
H          5.58683        5.63603        0.82372
