22
1-METHYL-2-ISOPROPENYLBENZENE.gamout	Energy:    -387.7357674
C          3.10724        2.78865        2.11844
C          3.29274        4.13533        2.47776
C          4.55944        4.72385        2.46955
C          4.23254        2.01108        1.75014
C          1.71674        2.22496        2.13727
C          5.49844        2.61847        1.75361
C          4.10790        0.54902        1.38371
C          5.66904        3.96065        2.10161
C          1.06164        2.05478        3.29614
C          1.07494        1.92841        0.80130
H          2.41877        4.72638        2.76448
H          4.67650        5.77349        2.75259
H          6.37263        2.01728        1.48498
H          3.31812        0.04987        1.96557
H          3.86302        0.41580        0.31510
H          5.05379        0.01650        1.56611
H          6.66847        4.40427        2.09314
H          0.03498        1.67485        3.32125
H          1.53159        2.28541        4.25662
H          0.05496        1.53331        0.92391
H          1.02228        2.84508        0.18846
H          1.65929        1.19641        0.22037
