36
1-N-HEXYLNAPHTHALENE.gamout	Energy:    -620.9071575
C          5.24739        2.03746       -0.69179
C          6.14675        2.62054        0.17690
C          4.38787        0.97934       -0.27672
C          6.23651        2.17777        1.51839
C          5.42207        1.15672        1.95691
C          4.48686        0.53302        1.08565
C          3.65130       -0.52410        1.53708
C          3.44850        0.34357       -1.15793
C          2.66660       -0.68763       -0.66575
C          3.26280        0.78710       -2.59399
C          2.75940       -1.12200        0.67659
C          2.28340        1.96689       -2.76693
C          2.08044        2.38555       -4.22935
C          1.07683        3.53141       -4.42434
C          0.86957        3.94029       -5.88768
C         -0.14024        5.07473       -6.07293
H          5.19930        2.39476       -1.72085
H          6.79414        3.42706       -0.17402
H          6.94971        2.64477        2.20118
H          5.48630        0.80649        2.99056
H          3.73056       -0.85503        2.57571
H          1.95652       -1.18121       -1.33473
H          4.23340        1.04865       -3.04796
H          2.88365       -0.07056       -3.17407
H          2.12030       -1.93717        1.02292
H          1.31011        1.68303       -2.32774
H          2.63972        2.82919       -2.17533
H          3.05497        2.67642       -4.66538
H          1.74258        1.50694       -4.81166
H          0.10276        3.23746       -3.98951
H          1.41007        4.41245       -3.84328
H          1.84075        4.23830       -6.32431
H          0.53874        3.05792       -6.46670
H         -0.26167        5.33434       -7.13649
H         -1.13459        4.79789       -5.68280
H          0.17664        5.98918       -5.54256
