28
1-N-BUTYLCYCLOHEXENE.gamout	Energy:    -391.3401305
C          2.08596        2.71620        4.02755
C          3.43684        2.07685        3.65053
C          4.34438        2.97877        2.84264
C          1.19945        1.85228        4.93735
C          5.05021        4.09332        3.59296
C          4.52843        2.80382        1.52185
C          0.69478        0.55327        4.30269
C          5.63258        5.16976        2.66926
C          5.42556        3.65842        0.66058
C          6.37420        4.53270        1.49120
H          2.26911        3.68078        4.53267
H          1.53695        2.95761        3.09880
H          3.95693        1.78178        4.58320
H          3.25821        1.14713        3.08582
H          1.75430        1.61646        5.86474
H          0.32990        2.45683        5.25075
H          5.85606        3.64552        4.20875
H          4.35633        4.55317        4.31897
H          3.99618        1.98615        1.01950
H          0.13194        0.75568        3.37501
H          0.02131        0.01111        4.98646
H          1.51870       -0.13223        4.04606
H          6.30064        5.83769        3.23873
H          4.81166        5.80074        2.28137
H          4.80176        4.29541        0.00187
H          6.00495        3.01440       -0.02551
H          7.19827        3.90695        1.88075
H          6.83862        5.30537        0.85564
