30
1-N-BUTYLNAPHTHALENE.gamout	Energy:    -542.3947350
C          2.79330        3.67932        3.47086
C          3.43493        5.05618        3.73403
C          3.77250        2.60961        3.03198
C          2.42140        6.12607        4.15436
C          4.63854        1.94505        3.96899
C          3.86779        2.27908        1.68961
C          3.05363        7.49480        4.41375
C          5.58631        0.97593        3.48616
C          4.59750        2.19480        5.37254
C          4.79453        1.31859        1.21542
C          5.64148        0.68261        2.09469
C          6.44835        0.32358        4.41314
C          5.44456        1.54241        6.24521
C          6.38507        0.59928        5.76228
H          2.02890        3.79279        2.68427
H          2.24924        3.35618        4.37572
H          3.96162        5.38581        2.82033
H          4.21372        4.96024        4.51073
H          1.88786        5.78801        5.06212
H          1.64828        6.21868        3.36952
H          3.20494        2.77289        0.97259
H          2.29748        8.24148        4.70597
H          3.56727        7.87661        3.51505
H          3.80148        7.44465        5.22327
H          3.87971        2.91536        5.76788
H          4.83121        1.08877        0.14712
H          6.36545       -0.05642        1.73993
H          7.16575       -0.40813        4.03015
H          5.38886        1.75143        7.31697
H          7.05463        0.09204        6.46194
