48
1-N-DECYLNAPHTHALENE.gamout	Energy:    -777.9320242
C          1.27480       -1.03835        0.89949
C          2.00177       -0.00473        1.46517
C          1.76467        1.34902        1.13150
C          0.78284        1.67612        0.22448
C         -0.00085        0.65858       -0.38405
C         -1.02545        0.97600       -1.31811
C         -1.78767       -0.00977       -1.90547
C         -1.55373       -1.36661       -1.57908
C         -0.56641       -1.70650       -0.67801
C          0.24372       -0.71766       -0.04921
C          1.61334       -2.46799        1.26805
C          2.63546       -3.13337        0.32287
C          2.99843       -4.56857        0.72622
C          4.05488       -5.22794       -0.17448
C          4.42196       -6.66250        0.23431
C          5.49373       -7.31785       -0.65032
C          5.85962       -8.75095       -0.23529
C          6.93772       -9.40850       -1.10835
C          7.29917      -10.83709       -0.68351
C          8.37517      -11.48704       -1.55539
H          2.78356       -0.24033        2.19228
H          2.36322        2.13246        1.60177
H          0.59255        2.72020       -0.03730
H         -1.20051        2.02681       -1.56270
H         -2.57100        0.25132       -2.62008
H         -2.15797       -2.15029       -2.04124
H         -0.40942       -2.75932       -0.44147
H          0.69817       -3.08160        1.30639
H          2.02118       -2.47646        2.29252
H          3.54920       -2.51280        0.29946
H          2.23881       -3.12431       -0.70823
H          2.08175       -5.18844        0.72845
H          3.36213       -4.56987        1.77145
H          4.96831       -4.60371       -0.17369
H          3.69369       -5.22844       -1.22024
H          3.50891       -7.28758        0.22258
H          4.76977       -6.66259        1.28488
H          6.40625       -6.69207       -0.63789
H          5.14750       -7.32090       -1.70133
H          4.94752       -9.37738       -0.25282
H          6.19908       -8.74759        0.81801
H          7.85137       -8.78407       -1.09225
H          6.60022       -9.41762       -2.16237
H          6.38712      -11.46230       -0.70013
H          7.63658      -10.82770        0.36961
H          8.05616      -11.55384       -2.60975
H          8.60530      -12.50870       -1.21384
H          9.31614      -10.91080       -1.53438
