25
1-N-PROPYLCYCLOHEXENE.gamout	Energy:    -352.0830765
C          0.87384        1.77520        5.03809
C          0.89961        3.29901        4.89243
C          2.23630        1.17723        4.66667
C          1.22061        3.70372        3.44884
C          2.37211        2.92129        2.84208
C          2.81682        1.78888        3.41480
C          2.91336        3.48868        1.54350
C          4.18785        2.87252        0.95082
C          5.47366        3.21485        1.70964
H          0.09839        1.36204        4.36712
H          0.59367        1.48212        6.06372
H          1.67109        3.71325        5.56733
H         -0.06192        3.73921        5.20611
H          2.15102        0.08332        4.53535
H          2.94920        1.31246        5.50487
H          1.44960        4.78397        3.39978
H          0.32461        3.57065        2.80950
H          3.65416        1.24918        2.96102
H          2.10003        3.42362        0.79362
H          3.07545        4.57574        1.68168
H          4.07242        1.77679        0.87600
H          4.28577        3.23137       -0.08859
H          5.64559        4.30485        1.72308
H          5.43857        2.87768        2.75741
H          6.35354        2.74816        1.23694
