45
1-N-NONYLNAPHTHALENE.gamout	Energy:    -738.6759187
C          1.39315       -0.97655        0.95008
C          2.10130        0.10721        1.44065
C          1.78915        1.43641        1.07042
C          0.75098        1.68750        0.20262
C         -0.01704        0.61582       -0.32755
C         -1.09940        0.85383       -1.21936
C         -1.84663       -0.18492       -1.72947
C         -1.53967       -1.51693       -1.36377
C         -0.49539       -1.77984       -0.50193
C          0.30269       -0.73463        0.04501
C          1.80561       -2.37725        1.35262
C          2.70729       -3.09060        0.32390
C          3.11139       -4.51174        0.73873
C          4.02692       -5.22270       -0.26999
C          4.41967       -6.65309        0.12963
C          5.33303       -7.36067       -0.88251
C          5.71788       -8.79469       -0.49365
C          6.62607       -9.49614       -1.51008
C          7.00051      -10.92630       -1.11729
H          2.92684       -0.06979        2.13534
H          2.37547        2.26188        1.48039
H          0.50295        2.71196       -0.08680
H         -1.33126        1.88607       -1.49361
H         -2.67536        0.01533       -2.41209
H         -2.13238       -2.34246       -1.76371
H         -0.28178       -2.81494       -0.23394
H          0.91496       -2.99765        1.55313
H          2.34616       -2.31695        2.31156
H          3.61359       -2.47880        0.16484
H          2.19414       -3.12057       -0.65355
H          2.19839       -5.11827        0.89171
H          3.61251       -4.47645        1.72474
H          4.94292       -4.61980       -0.41673
H          3.52705       -5.24635       -1.25675
H          3.50142       -7.25419        0.27123
H          4.91662       -6.63324        1.11812
H          6.25377       -6.76337       -1.02380
H          4.83442       -7.37494       -1.87031
H          4.79792       -9.39428       -0.35563
H          6.21752       -8.78543        0.49387
H          7.54729       -8.90024       -1.64846
H          6.12692       -9.50542       -2.49684
H          7.53966      -10.95393       -0.15488
H          7.65058      -11.39178       -1.87447
H          6.10598      -11.56371       -1.01113
