28
1-N-PENTYLCYCLOPENTENE.gamout	Energy:    -391.3313694
C          1.85188        1.55313        4.66288
C          3.26548        0.96082        4.85203
C          4.40978        1.66094        4.17107
C          1.23012        1.40571        3.26466
C          4.78650        3.10044        4.47988
C          5.29719        1.11453        3.32215
C          1.72578        2.39823        2.20489
C          5.85216        3.44111        3.41080
C          6.39170        2.07379        2.92097
C          1.03055        2.23161        0.85262
H          1.84867        2.61948        4.95471
H          1.19312        1.04584        5.38883
H          3.47584        0.95628        5.93969
H          3.25488       -0.09799        4.53900
H          1.39121        0.37242        2.90123
H          0.13411        1.51985        3.35805
H          3.92525        3.78944        4.44989
H          5.19288        3.16588        5.50911
H          5.26962        0.07153        2.99165
H          1.56187        3.42683        2.57733
H          2.81486        2.28800        2.07397
H          5.36856        3.96414        2.56938
H          6.64449        4.10468        3.79064
H          7.34510        1.80410        3.41768
H          6.60173        2.06517        1.83697
H         -0.06165        2.36506        0.94065
H          1.20403        1.22619        0.43161
H          1.39579        2.96514        0.11534
