13
1-NITROPROPANE.gamout	Energy:    -323.2239934
N          1.08739        0.01761       -0.04881
O          1.28300       -1.18337       -0.11383
O          1.92533        0.85969        0.21698
C         -0.30924        0.50748       -0.35537
C         -1.37952       -0.34406        0.31579
C         -2.79054        0.15177       -0.00950
H         -0.32854        1.55882       -0.04071
H         -0.39168        0.46315       -1.45372
H         -1.25056       -1.38745       -0.00975
H         -1.21700       -0.33006        1.40732
H         -2.94660        1.18836        0.33286
H         -2.98927        0.12323       -1.09398
H         -3.54621       -0.47875        0.48371
