16
1-NITROBUTANE.gamout	Energy:    -362.4803840
C         52.00924        0.01726       -0.16706
N         53.33915        0.72155       -0.01908
C         50.83395        0.95261        0.08135
O         54.20618        0.14564        0.61176
O         53.45787        1.80597       -0.56156
C         49.48473        0.24661       -0.09817
C         48.29245        1.17165        0.14872
H         52.00277       -0.36894       -1.19902
H         52.04371       -0.82943        0.52972
H         50.90622        1.36015        1.10525
H         50.91372        1.80849       -0.60712
H         49.42322       -0.16980       -1.12034
H         49.43027       -0.61931        0.58627
H         47.33766        0.63913        0.01446
H         48.30529        1.57926        1.17329
H         48.29938        2.02668       -0.54731
