57
1-NONADECENE.gamout	Energy:    -745.8199833
C         10.13639        3.13590        4.59334
C         10.64444        2.72022        3.20567
C          8.62870        3.41008        4.71103
C         10.05010        1.40635        2.67093
C         10.68086        0.95543        1.38414
C          8.09065        4.57021        3.85802
C          8.54310        5.98475        4.27381
C          7.57218        6.74537        5.18982
C          7.35866        6.14912        6.58571
C          6.50006        7.00631        7.52984
C          5.02847        7.15258        7.12536
C          4.19178        7.96823        8.12126
C          2.70132        8.12539        7.75580
C          1.73660        7.08496        8.34503
C          1.94054        5.63378        7.89145
C          0.87799        4.66118        8.41618
C          1.09332        3.20917        7.97245
C          0.03386        2.23917        8.49675
C         10.04404        0.78974        0.22134
H         10.39636        2.34286        5.31773
H         10.70191        4.02696        4.91811
H         10.45742        3.52084        2.46825
H         11.74288        2.61842        3.25665
H          8.07367        2.49374        4.44377
H          8.39623        3.59196        5.77295
H          8.96131        1.50752        2.52553
H         10.19260        0.62041        3.43874
H         11.76295        0.76433        1.42091
H          6.98677        4.53323        3.86597
H          8.37356        4.39272        2.80637
H          8.68358        6.59368        3.36573
H          9.53932        5.93835        4.75059
H          7.94343        7.78036        5.30473
H          6.59955        6.83255        4.67144
H          6.89818        5.14813        6.49749
H          8.34373        5.98864        7.05939
H          6.54766        6.56158        8.54052
H          6.95688        8.01065        7.62398
H          4.58578        6.14821        7.00220
H          4.95773        7.63461        6.13340
H          4.64135        8.97339        8.20777
H          4.27804        7.52246        9.13091
H          2.36120        9.11712        8.09590
H          2.59504        8.13923        6.65441
H          1.79175        7.12725        9.44966
H          0.70735        7.39354        8.08720
H          1.95211        5.59736        6.78553
H          2.93546        5.28068        8.21723
H          0.85706        4.70136        9.52220
H         -0.12280        4.99841        8.08524
H          2.09378        2.87515        8.30505
H          1.11422        3.16595        6.86750
H          0.23036        1.20976        8.15735
H         -0.97648        2.51516        8.14930
H          0.00784        2.22439        9.60003
H          8.96725        0.96787        0.12505
H         10.57578        0.46715       -0.67740
