60
1-NONADECANOL.gamout	Energy:    -822.1844547
C         -0.16891       -0.35141       -0.00058
C          1.16410        0.40008       -0.00033
C          1.00925        1.92531       -0.00022
C          2.33875        2.69124       -0.00002
C          2.17950        4.21761        0.00004
C          3.50601        4.99083        0.00020
C          3.33873        6.51636        0.00023
C          5.80947        9.60202        0.00038
C          4.48856        8.81948        0.00037
C          5.63511       11.12692        0.00032
C          4.66173        7.29459        0.00041
C          8.11102       14.20926        0.00012
C          6.78601       13.43358        0.00019
C          7.94939       15.73564       -0.00000
C          6.95668       11.90821        0.00029
C         10.46782       18.77683       -0.00030
C          9.13170       18.02826       -0.00021
C         10.31835       20.29187       -0.00035
C          9.28047       16.50128       -0.00012
O         11.60868       20.86642       -0.00038
H         -0.01695       -1.44261       -0.00068
H         -0.77271       -0.09962        0.88802
H         -0.77248       -0.09940       -0.88927
H          1.75789        0.09420       -0.88148
H          1.75770        0.09405        0.88091
H          0.41388        2.22986        0.88143
H          0.41408        2.23004       -0.88196
H          2.93333        2.38557       -0.88164
H          2.93320        2.38552        0.88168
H          1.58362        4.52117        0.88152
H          1.58381        4.52134       -0.88152
H          4.10228        4.68853       -0.88143
H          4.10220        4.68852        0.88189
H          2.74156        6.81725        0.88176
H          2.74173        6.81734       -0.88140
H          6.40746        9.30316        0.88206
H          6.40761        9.30320       -0.88121
H          3.89041        9.11819       -0.88125
H          3.89042        9.11826        0.88197
H          5.03715       11.42575       -0.88138
H          5.03711       11.42592        0.88195
H          5.25936        6.99476       -0.88118
H          5.25919        6.99477        0.88212
H          8.70721       13.90662        0.88169
H          8.70728       13.90648       -0.88136
H          6.18902       13.73427       -0.88153
H          6.18905       13.73450        0.88187
H          7.35435       16.04001       -0.88182
H          7.35440       16.04021        0.88178
H          7.55450       11.60875        0.88190
H          7.55456       11.60862       -0.88125
H         11.06660       18.49119        0.88286
H         11.06661       18.49111       -0.88342
H          8.54045       18.33824       -0.88244
H          8.54057       18.33848        0.88203
H          9.73127       20.60448       -0.89083
H          9.73131       20.60453        0.89014
H          9.87449       16.19459        0.88130
H          9.87446       16.19447       -0.88153
H         11.51595       21.82674       -0.00036
