25
1-NONYNE.gamout	Energy:    -352.0267108
C          6.09132        1.95248        1.09536
C          4.82101        2.81333        1.17113
C          3.69317        2.21841        2.02061
C          6.90055        1.87622        2.39521
C          2.44632        3.12381        2.07110
C          8.18014        1.04046        2.27629
C          1.34454        2.56544        2.85612
C          8.99977        0.99148        3.56674
C          0.44108        2.09007        3.50951
H          5.81916        0.92962        0.77310
H          6.74269        2.35314        0.29789
H          4.44167        2.98148        0.14680
H          5.08396        3.81472        1.56200
H          4.03742        2.03745        3.05262
H          3.40265        1.23252        1.61714
H          7.16551        2.90217        2.71516
H          6.27718        1.46098        3.20778
H          2.09079        3.32037        1.04275
H          2.72317        4.10935        2.48836
H          7.91492        0.01237        1.96738
H          8.80359        1.44597        1.45802
H          8.41772        0.55522        4.39639
H          9.91209        0.38471        3.44675
H          9.31213        2.00208        3.88077
H         -0.35929        1.66893        4.08825
