30
1-NONANOL.gamout	Energy:    -429.6218906
C          4.41488       -0.51645        0.00000
C          3.16033        0.34535       -0.00000
C          1.86177       -0.46390        0.00000
C          0.59725        0.40157        0.00000
C         -0.70522       -0.40473        0.00000
C         -1.97061        0.45925        0.00000
C         -3.27376       -0.34601       -0.00000
C         -4.53912        0.51869        0.00000
C         -5.83693       -0.29162       -0.00000
O          5.54417        0.33396       -0.00000
H          4.40569       -1.18161        0.89020
H          4.40569       -1.18162       -0.89019
H          3.19914        1.00795        0.88291
H          3.19914        1.00794       -0.88291
H          1.84319       -1.13148       -0.88222
H          1.84319       -1.13148        0.88222
H          0.61395        1.06936        0.88164
H          0.61395        1.06936       -0.88164
H         -0.72046       -1.07290       -0.88177
H         -0.72046       -1.07291        0.88177
H         -1.95508        1.12740        0.88171
H         -1.95508        1.12740       -0.88171
H         -3.29020       -1.01428       -0.88191
H         -3.29020       -1.01429        0.88190
H         -4.52128        1.18634        0.88124
H         -4.52128        1.18635       -0.88123
H         -5.90382       -0.94186       -0.88890
H         -5.90382       -0.94186        0.88890
H         -6.72345        0.36341       -0.00000
H          6.34001       -0.21206       -0.00000
