57
1-OCTADECANOL.gamout	Energy:    -782.9281631
C         -3.48424      -10.72000        0.18679
C         -3.06122       -9.47518       -0.59569
C         -2.48800       -8.35945        0.28517
C         -2.06005       -7.10673       -0.48913
C         -1.48520       -5.98940        0.39135
C         -1.05761       -4.73538       -0.38311
C         -0.48230       -3.61826        0.49790
C         -0.05636       -2.36319       -0.27615
C          0.51906       -1.24588        0.60478
C          0.94258        0.01041       -0.16898
C          1.51807        1.12800        0.71179
C          1.93877        2.38552       -0.06185
C          2.51460        3.50340        0.81854
C          2.93239        4.76175        0.04459
C          3.50918        5.87960        0.92469
C          3.92466        7.13819        0.15104
C          4.50084        8.24980        1.03221
C          4.90765        9.49324        0.25473
O          5.42269       10.44216        1.16758
H         -3.88879      -11.49780       -0.48014
H         -2.63236      -11.16015        0.73299
H         -4.26349      -10.48232        0.93144
H         -3.92726       -9.08405       -1.16144
H         -2.31186       -9.75766       -1.35865
H         -1.62209       -8.75293        0.85121
H         -3.23840       -8.07860        1.04900
H         -2.92708       -6.71578       -1.05494
H         -1.31104       -7.38994       -1.25326
H         -0.61833       -6.38129        0.95674
H         -2.23402       -5.70692        1.15592
H         -1.92499       -4.34378       -0.94794
H         -0.30903       -5.01742       -1.14808
H          0.38529       -4.01005        1.06225
H         -1.23053       -3.33669        1.26340
H         -0.92485       -1.97210       -0.83964
H          0.69148       -2.64414       -1.04226
H          1.38782       -1.63710        1.16773
H         -0.22846       -0.96558        1.37143
H          0.07278        0.40088       -0.73088
H          1.68962       -0.26905       -0.93643
H          2.38828        0.73761        1.27308
H          0.77147        1.40694        1.47984
H          1.06745        2.77526       -0.62193
H          2.68483        2.10748       -0.83078
H          3.38639        3.11376        1.37788
H          1.76922        3.78110        1.58820
H          2.05936        5.15063       -0.51351
H          3.67707        4.48447       -0.72603
H          4.38266        5.49096        1.48175
H          2.76556        6.15702        1.69592
H          3.05043        7.52805       -0.40419
H          4.66849        6.86197       -0.62059
H          5.38686        7.88562        1.58254
H          3.76750        8.55263        1.80106
H          4.02725        9.89289       -0.29312
H          5.66133        9.22033       -0.51523
H          5.67995       11.23061        0.67491
