27
1-OCTANETHIOL.gamout	Energy:    -713.2588671
C         85.98736       10.03281        0.00009
C         84.70077        9.20092       -0.00010
C         84.94561        7.68853        0.00011
C         85.74893       11.54582       -0.00012
C         83.65613        6.85893       -0.00011
C         87.03743       12.37582        0.00009
C         83.91943        5.35334        0.00011
C         86.79347       13.88564       -0.00009
S         82.31973        4.43691       -0.00030
H         86.59611        9.76013        0.88286
H         86.59653        9.75994       -0.88232
H         84.09138        9.47135       -0.88279
H         84.09103        9.47151        0.88231
H         85.55357        7.41760        0.88362
H         85.55407        7.41739       -0.88298
H         85.14040       11.81978       -0.88282
H         85.14001       11.81995        0.88227
H         83.04824        7.12079       -0.88486
H         83.04782        7.12098        0.88430
H         87.64431       12.10022        0.88238
H         87.64468       12.10009       -0.88190
H         84.49869        5.06626        0.89238
H         84.49928        5.06609       -0.89172
H         87.74030       14.45028        0.00005
H         86.22001       14.20033       -0.88871
H         86.21964       14.20049        0.88824
H         82.85059        3.19160       -0.00008
