37
1-OCTYLPYRROLIDIN-2-ONE.gamout	Energy:    -600.3037547
O          1.74378       -2.39960       -3.32343
N          1.66311       -0.98978       -1.50649
C          1.20827       -1.99788       -0.55973
C          2.13082        0.33405       -1.12196
C         -0.31402       -2.19241       -0.53644
C          2.31079        1.05271       -2.47500
C         -1.11210       -0.97427       -0.06262
C          2.59327       -0.08827       -3.46087
C         -2.62883       -1.19210       -0.06834
C          1.94555       -1.31484       -2.81228
C         -3.42982        0.02500        0.40453
C         -4.94696       -0.18704        0.39754
C         -5.74657        1.03218        0.86868
C         -7.26047        0.81280        0.86100
H          1.68167       -2.95355       -0.83863
H          1.57597       -1.71801        0.44240
H          1.40403        0.84364       -0.46885
H          3.08656        0.27128       -0.56202
H         -0.63567       -2.48448       -1.55072
H         -0.53661       -3.05520        0.11789
H          3.10306        1.81478       -2.43624
H          1.37325        1.56363       -2.74770
H         -0.78722       -0.69552        0.95832
H         -0.87363       -0.10732       -0.70563
H          3.67280       -0.29797       -3.56462
H          2.19761        0.06797       -4.47473
H         -2.87745       -2.06269        0.56737
H         -2.94935       -1.46760       -1.09037
H         -3.18107        0.89437       -0.23322
H         -3.10485        0.30167        1.42541
H         -5.19849       -1.05606        1.03471
H         -5.27082       -0.46295       -0.62387
H         -5.41909        1.30859        1.88805
H         -5.49610        1.89895        0.22940
H         -7.80262        1.70958        1.20250
H         -7.62511        0.56898       -0.15141
H         -7.54863       -0.02227        1.52221
