54
1-OCTADECENE.gamout	Energy:    -706.5676345
C          8.76797        4.78190        3.40704
C          7.66344        3.80715        3.84723
C          6.28241        4.43733        4.06381
C          9.19481        5.82126        4.45337
C          5.19226        3.45422        4.51892
C         10.34990        6.72026        3.99251
C          4.82475        2.33132        3.53728
C         10.78608        7.75797        5.03642
C          4.23740        2.80514        2.20208
C         11.88652        8.72971        4.58018
C          3.79028        1.66676        1.26963
C         13.25816        8.09479        4.31753
C          2.50257        0.91985        1.67298
C         14.34430        9.11948        3.94230
C          1.20774        1.42846        1.02322
C         15.70015        8.50600        3.72799
C          0.79185        2.85575        1.38220
C         16.40307        8.55140        2.59265
H          8.44640        5.30419        2.48565
H          9.65548        4.19059        3.11767
H          7.97649        3.29228        4.77588
H          7.58682        3.01690        3.08098
H          6.35512        5.23158        4.82590
H          5.96792        4.94810        3.13498
H          9.48978        5.29593        5.38178
H          8.33186        6.45495        4.72792
H          5.50662        2.99291        5.47308
H          4.28028        4.03142        4.75619
H         11.21135        6.08431        3.71860
H         10.05699        7.24459        3.06283
H          5.70904        1.69913        3.33588
H          4.10099        1.66720        4.04089
H         11.12029        7.23334        5.95191
H          9.90469        8.35178        5.33823
H          4.99258        3.40846        1.66938
H          3.39196        3.48839        2.39715
H         11.55150        9.25729        3.66684
H         11.99894        9.51176        5.35206
H          4.61874        0.94031        1.19399
H          3.66404        2.06578        0.24723
H         13.58105        7.53626        5.21624
H         13.18418        7.34823        3.50785
H          2.38864        0.92812        2.77276
H          2.61122       -0.14324        1.40158
H         14.04149        9.67070        3.03435
H         14.41475        9.87141        4.75267
H          0.39137        0.73946        1.30354
H          1.30329        1.34403       -0.07561
H         16.12587        7.97076        4.58862
H          1.51763        3.60317        1.02246
H          0.69432        2.98594        2.47375
H         -0.18145        3.10702        0.93136
H         17.38396        8.07563        2.50911
H         16.02711        9.07034        1.70372
