25
1-OCTANAL.gamout	Energy:    -389.1652390
C          4.64882        2.57543        2.22430
C          4.11732        3.79597        1.46574
C          2.75747        4.29035        1.96891
C          6.00658        2.07884        1.71849
C          2.23179        5.51234        1.19646
C          6.54344        0.85675        2.47203
C          0.90077        5.99711        1.72139
C          7.89852        0.36936        1.95687
O         -0.11394        6.07052        1.07571
H          4.72606        2.81908        3.30068
H          3.91061        1.75452        2.15546
H          4.03874        3.55314        0.38989
H          4.85273        4.61945        1.53428
H          2.83196        4.53864        3.04396
H          2.01887        3.47168        1.89624
H          5.92778        1.83626        0.64181
H          6.74489        2.90029        1.78569
H          2.11796        5.29422        0.12239
H          2.95351        6.34561        1.30093
H          5.80454        0.03705        2.40435
H          6.62186        1.10023        3.54775
H          0.90770        6.28917        2.80880
H          8.25599       -0.50889        2.51861
H          7.84322        0.08315        0.89271
H          8.66750        1.15570        2.04522
