52
1-OCTADECYNE.gamout	Energy:    -705.3345082
C          0.65711        1.82505        1.55955
C          1.95108        1.46055        0.82970
C          3.21165        1.63403        1.68440
C          4.51524        1.32718        0.93818
C          5.78320        1.48895        1.78697
C          7.08446        1.24442        1.01128
C          8.36044        1.40267        1.84885
C         14.80131        1.12664        1.07632
C         13.51417        1.31086        1.89230
C         16.09132        1.27815        1.89364
C         12.22712        1.15892        1.07068
C         10.93777        1.35183        1.87972
C          9.65532        1.19504        1.05209
C         22.18959        1.52677        2.40297
C         21.17388        1.32974        1.77197
C         19.93472        1.09553        1.03115
C         18.66175        1.27961        1.88206
C         17.37486        1.10215        1.07113
H          0.51671        1.20997        2.46499
H          0.65940        2.88179        1.87728
H         -0.22452        1.67435        0.91635
H          2.04478        2.08003       -0.08176
H          1.89273        0.41519        0.47379
H          3.24925        2.67145        2.06814
H          3.13707        0.98766        2.57974
H          4.58634        1.98957        0.05440
H          4.47386        0.29756        0.53491
H          5.80416        2.50839        2.21690
H          5.73612        0.80103        2.65229
H          7.12679        1.94303        0.15423
H          7.06182        0.23072        0.56813
H          8.37264        2.41077        2.30505
H          8.33449        0.69198        2.69641
H         14.78930        0.12996        0.59570
H         14.81043        1.85762        0.24575
H         13.52550        2.31021        2.36729
H         13.50343        0.58451        2.72685
H         16.10335        2.27468        2.37412
H         16.08611        0.54674        2.72357
H         12.24187        1.88582        0.23662
H         12.21386        0.15996        0.59482
H         10.92236        0.63260        2.72033
H         10.94817        2.35527        2.34617
H          9.67862        1.91264        0.21017
H          9.64147        0.19091        0.58721
H         23.09053        1.70075        2.96011
H         19.95285        0.07382        0.60903
H         19.89900        1.78039        0.16389
H         18.68320        0.56010        2.71918
H         18.68227        2.28335        2.34143
H         17.37396        0.10043        0.60111
H         17.37092        1.82531        0.23389
