24
1-OCTENE.gamout	Energy:    -314.0135889
C          2.97388        2.44632        2.41333
C          2.90780        2.40964        0.88432
C          3.79816        3.45103        0.19952
C          2.08078        1.40496        3.09631
C          3.72995        3.41712       -1.33134
C          2.14497        1.44411        4.60864
C          4.62012        4.46112       -2.00701
C          1.46628        0.64561        5.43734
H          2.69121        3.45461        2.76919
H          4.02012        2.29593        2.73971
H          1.85960        2.55828        0.56219
H          3.18826        1.39951        0.53093
H          4.84686        3.30299        0.52055
H          3.51728        4.46095        0.55350
H          1.03419        1.55056        2.76850
H          2.35778        0.39488        2.74087
H          2.68095        3.56461       -1.64877
H          4.00948        2.40726       -1.68404
H          2.81232        2.20077        5.04366
H          4.34123        5.48420       -1.70210
H          4.54565        4.40986       -3.10547
H          5.68092        4.31747       -1.73889
H          1.56340        0.73264        6.52339
H          0.78433       -0.12766        5.06504
