18
1-PENTANETHIOL.gamout	Energy:    -595.4915488
C          4.42104        1.41395        1.72736
C          2.99644        1.93208        1.49765
C          2.04053        0.86642        0.94956
C          5.37309        2.48316        2.26234
C          0.61764        1.37822        0.72267
S          7.07022        1.88291        2.63193
H          4.82348        1.01502        0.77788
H          4.40503        0.56522        2.43306
H          3.02225        2.79084        0.80036
H          2.59308        2.32796        2.44884
H          2.01935        0.00902        1.64706
H          2.44678        0.47192        0.00003
H          5.01420        2.87372        3.22907
H          5.43210        3.34312        1.57531
H          0.16807        1.74711        1.66031
H          0.59989        2.21231        0.00047
H         -0.03947        0.58546        0.32971
H          7.37827        1.49709        1.37046
