15
1-PENTENE.gamout	Energy:    -196.2447433
C          0.15365        6.37656        0.12737
C          1.57152        5.79884        0.20631
C          1.62185        4.38746        0.75183
C          0.10323        7.80293       -0.41847
C          2.72659        3.65690        0.92741
H         -0.46932        5.71434       -0.50151
H         -0.29974        6.34737        1.13522
H          2.03362        5.82611       -0.79870
H          2.19976        6.45940        0.83333
H          0.65516        3.94139        1.02347
H          0.51714        7.85915       -1.43985
H          0.68902        8.49446        0.21111
H         -0.93001        8.18416       -0.45748
H          3.72172        4.04262        0.67743
H          2.68108        2.64101        1.33032
