43
1-PENTADECYNE.gamout	Energy:    -587.5642599
C          0.19259        1.50555        2.64291
C          1.68674        1.74565        2.86456
C          2.30395        2.74620        1.88053
C          3.79970        2.99945        2.10386
C          4.41916        3.99569        1.11512
C          5.89200        4.34655        1.37869
C         10.81427        2.85418        1.42360
C          9.34901        2.44640        1.22240
C         11.81376        1.70084        1.25944
C          8.34991        3.59875        1.39300
C          6.88448        3.19118        1.19652
C         16.81461        1.63778        1.65707
C         15.65951        1.31009        1.49206
C         14.25850        0.93615        1.29724
C         13.27505        2.11128        1.46401
H         -0.38742        2.43812        2.75068
H         -0.00765        1.10966        1.63258
H         -0.20960        0.78039        3.36801
H          2.22688        0.78339        2.79197
H          1.85143        2.10344        3.89783
H          1.75469        3.70486        1.94836
H          2.14460        2.38376        0.84707
H          4.33647        2.03488        2.04906
H          3.95555        3.37177        3.13439
H          3.82926        4.92983        1.13878
H          4.31511        3.60348        0.08544
H          6.17974        5.17237        0.70386
H          5.98811        4.75172        2.40423
H         11.07176        3.66139        0.71225
H         10.93329        3.29502        2.43145
H          9.09740        1.63865        1.93559
H          9.22739        2.00420        0.21526
H         11.55987        0.89433        1.97310
H         11.69767        1.25736        0.25233
H          8.47148        4.03625        2.40225
H          8.60542        4.40948        0.68450
H          6.75529        2.75914        0.18571
H          6.64383        2.37720        1.90400
H         17.83906        1.92340        1.80227
H         14.00022        0.13084        2.00961
H         14.14208        0.49352        0.29061
H         13.40792        2.54559        2.47042
H         13.54818        2.90778        0.74981
