33
1-PENTYLNAPHTHALENE.gamout	Energy:    -581.6456649
C          3.35957        4.40508        1.65544
C          3.33226        3.83909        2.97548
C          2.19158        4.34223        0.84537
C          4.55037        5.01999        1.18263
C          2.11767        3.23803        3.41408
C          4.51014        3.90783        3.79490
C          1.00108        3.19367        2.60537
C          1.03590        3.75052        1.30477
C          5.66750        5.07856        1.98348
C          5.63889        4.52490        3.28399
C          4.56551        3.30118        5.18064
C          4.83262        1.78151        5.18786
C          5.01091        1.15205        6.58117
C          3.74419        0.65418        7.29074
C          2.73704        1.72032        7.72572
H          2.22777        4.77730       -0.15692
H          4.56196        5.44679        0.17659
H          2.06497        2.80189        4.41167
H          0.08423        2.72688        2.97164
H          0.14700        3.71105        0.67076
H          6.58154        5.55526        1.62227
H          6.53554        4.58522        3.90692
H          5.38249        3.79121        5.73520
H          3.64357        3.53194        5.73677
H          4.03123        1.25639        4.63793
H          5.75281        1.60865        4.60467
H          5.68417        0.28459        6.47571
H          5.54588        1.86404        7.23875
H          3.23740       -0.08161        6.63869
H          4.06231        0.08984        8.18514
H          1.92777        1.27081        8.32260
H          3.21431        2.49885        8.34506
H          2.26166        2.22520        6.86946
