13
1-PENTYNE.gamout	Energy:    -195.0026783
C          0.95393        1.77124        2.12663
C          2.01061        0.64755        2.18868
C          3.39585        1.12235        2.15314
C          0.97359        2.56374        0.81965
C          4.53907        1.52425        2.11879
H          1.10752        2.45161        2.98186
H         -0.03827        1.30920        2.27022
H          1.86369        0.05408        3.10880
H          1.85123       -0.05185        1.34714
H          0.21243        3.36036        0.82422
H          1.95565        3.03587        0.65579
H          0.76914        1.91097       -0.04621
H          5.55300        1.87670        2.09344
