48
1-PENTADECANOL.gamout	Energy:    -665.1593416
C        139.00722       10.04118        0.00015
C        137.69856        9.23923       -0.00011
C        137.89590        7.71756        0.00014
C        138.80853       11.56271       -0.00011
C        136.58539        6.91807       -0.00009
C        140.11770       12.36425        0.00010
C        136.77667        5.39528        0.00013
C        139.92186       13.88668       -0.00009
C        135.46239        4.60111       -0.00009
C        141.23304       14.68506        0.00011
C        135.64385        3.07778        0.00006
C        141.03850       16.20426       -0.00010
C        134.32518        2.29408       -0.00014
C        142.34752       16.98211        0.00009
C        134.51079        0.77542        0.00004
O        142.04774       18.36348       -0.00006
H        139.60974        9.75191        0.88192
H        139.61026        9.75166       -0.88119
H        137.09611        9.52869       -0.88183
H        137.09559        9.52894        0.88118
H        138.49809        7.42773        0.88193
H        138.49856        7.42745       -0.88125
H        138.20599       11.85175       -0.88188
H        138.20553       11.85206        0.88125
H        135.98373        7.20956       -0.88173
H        135.98323        7.20973        0.88117
H        140.71988       12.07396        0.88185
H        140.72036       12.07383       -0.88129
H        137.37766        5.10295        0.88193
H        137.37808        5.10267       -0.88130
H        139.32047       14.17774       -0.88176
H        139.32008       14.17796        0.88126
H        134.86202        4.89546       -0.88170
H        134.86155        4.89554        0.88118
H        141.83383       14.39342        0.88223
H        141.83428       14.39331       -0.88167
H        136.24204        2.77946        0.88197
H        136.24238        2.77926       -0.88155
H        140.45391       16.51789       -0.88322
H        140.45356       16.51812        0.88271
H        133.72751        2.59204       -0.88144
H        133.72708        2.59217        0.88084
H        142.94665       16.69522        0.89084
H        142.94702       16.69512       -0.89039
H        133.54116        0.25246       -0.00015
H        135.07012        0.43726        0.88904
H        135.07053        0.43707       -0.88864
H        142.87769       18.85545       -0.00007
