42
1-PENTAETHYLBENZENE.gamout	Energy:    -624.4859906
C          4.39319        3.87302        1.61751
C          3.15902        3.32960        2.07880
C          2.28581        4.10510        2.88926
C          2.75886        1.91502        1.67572
C          4.74627        5.19259        1.98112
C          5.32220        3.07382        0.71253
C          3.88500        5.91516        2.80885
C          6.01044        5.90152        1.51994
C          2.67375        5.40835        3.27462
C          1.80384        6.32244        4.11939
C          0.93892        3.57973        3.36480
C          7.03336        6.15285        2.63946
C          6.60435        2.54872        1.38241
C          3.45076        0.78583        2.45769
C          0.98607        2.80141        4.68889
C          0.88249        7.22185        3.28083
H          2.94897        1.76625        0.60051
H          1.67433        1.79251        1.78830
H          4.78447        2.22011        0.27989
H          5.60993        3.69792       -0.15083
H          4.16596        6.93369        3.09664
H          6.49398        5.34998        0.70254
H          5.72066        6.87782        1.09188
H          1.20079        5.74304        4.83385
H          2.46068        6.96193        4.73268
H          0.24479        4.42506        3.48116
H          0.47998        2.94551        2.59250
H          7.38173        5.21129        3.09337
H          6.60064        6.76249        3.44877
H          7.91460        6.68813        2.25146
H          7.18457        1.93307        0.67638
H          7.25525        3.36825        1.72127
H          6.37755        1.92918        2.26394
H          4.53856        0.78012        2.29686
H          3.28363        0.88085        3.54194
H          3.06179       -0.19585        2.14266
H         -0.02518        2.48915        4.99535
H          1.60659        1.89574        4.60784
H          1.41133        3.41523        5.49936
H          1.46971        7.87119        2.61190
H          0.20582        6.62608        2.64717
H          0.26355        7.86756        3.92392
