28
1-PHENYLNAPHTHALENE.gamout	Energy:    -616.1100374
C          3.52585        1.53608        4.91248
C          3.01459        1.23430        3.59975
C          4.86998        1.31441        5.17861
C          2.64922        2.05950        6.00164
C          3.90262        0.66672        2.61980
C          1.66940        1.50030        3.20753
C          5.74161        0.76786        4.20677
C          2.96684        3.25436        6.67277
C          1.51339        1.34165        6.42311
C          5.26616        0.43911        2.95689
C          3.40119        0.35542        1.32408
C          1.21817        1.19482        1.93940
C          2.17029        3.72173        7.72279
C          0.71884        1.80683        7.47325
C          2.08788        0.60644        0.98845
C          1.04239        3.00086        8.12583
H          5.25665        1.53842        6.17621
H          0.98948        1.96680        3.92157
H          6.79041        0.59485        4.46217
H          3.84188        3.82833        6.35683
H          1.26373        0.39791        5.93197
H          5.92968        0.00422        2.20409
H          4.08475       -0.08413        0.59189
H          0.18301        1.41462        1.66465
H          2.43068        4.65660        8.22666
H         -0.15442        1.22848        7.78721
H          1.71930        0.36286       -0.01150
H          0.41909        3.36545        8.94668
