22
1-PROPENYLCYCLOPENTANE.gamout	Energy:    -312.8160125
C         -3.01225       -1.34141        1.00495
C         -4.09677       -0.73510        0.08077
C         -1.84726       -0.32200        0.98846
C         -3.97245        0.76973        0.36571
C         -2.45359        1.01045        0.45912
H         -3.42820       -1.43821        2.02284
H         -2.70503       -2.35135        0.68850
H         -1.40820       -0.20459        1.99181
H         -1.03048       -0.66257        0.33204
H         -4.46224        1.39515       -0.39776
H         -4.45747        0.99728        1.33168
H         -2.20667        1.87270        1.09841
H         -2.05047        1.24080       -0.54132
C         -5.45405       -1.36845        0.23007
H         -3.76615       -0.90876       -0.96483
C         -6.61016       -0.74576        0.49462
C         -7.94547       -1.41927        0.63410
H         -8.38836       -1.22959        1.62846
H         -7.87112       -2.50978        0.49711
H         -8.66859       -1.03094       -0.10566
H         -5.47119       -2.46012        0.09808
H         -6.61273        0.34453        0.61958
