42
1-TETRADECENE.gamout	Energy:    -549.5530856
C          8.64207        2.22563        1.86134
C         10.14353        2.23383        2.17736
C         10.80941        0.85064        2.06741
C         12.26753        0.85965        2.43270
C         13.27672        0.52091        1.62512
C          7.97215        3.60209        1.96347
C          6.46792        3.59199        1.65537
C          5.79725        4.96943        1.74729
C          4.29066        4.95432        1.44964
C          3.61503        6.33031        1.52085
C          2.10802        6.28885        1.23167
C          1.40349        7.65311        1.19566
C          1.34774        8.39542        2.53553
C          0.56541        9.70732        2.46780
H          8.13220        1.52101        2.54556
H          8.48841        1.81627        0.84508
H         10.30059        2.63211        3.19729
H         10.66248        2.93622        1.49988
H         10.68599        0.45275        1.04466
H         10.27694        0.14875        2.73876
H         12.50170        1.18788        3.45539
H         14.31552        0.56021        1.96434
H         13.10344        0.18816        0.59549
H          8.47824        4.30868        1.27867
H          8.13172        4.00932        2.97983
H          5.96042        2.89537        2.34948
H          6.30770        3.17219        0.64428
H          6.29862        5.66838        1.05107
H          5.96449        5.38749        2.75804
H          3.78812        4.26963        2.15908
H          4.12397        4.51584        0.44750
H          4.10206        7.01758        0.80279
H          3.79361        6.76704        2.52016
H          1.61006        5.64584        1.98243
H          1.94967        5.78661        0.26049
H          0.37049        7.49993        0.83408
H          1.89016        8.29976        0.44046
H          2.37219        8.60152        2.89330
H          0.89312        7.73285        3.29568
H         -0.47940        9.53863        2.15493
H          1.01511       10.40782        1.74324
H          0.54014       10.21509        3.44523
