45
1-TETRADECANOL.gamout	Energy:    -625.9028788
C         -0.03556       -1.33043       -0.31999
C          0.14921        0.07261        0.26135
C          1.26380        0.87994       -0.41442
C          1.45365        2.28747        0.16479
C          2.56679        3.10284       -0.50737
C          2.75075        4.51085        0.07671
C          3.86215        5.33362       -0.59127
C          4.04134        6.74086       -0.00291
C          7.90102       13.41364       -0.19786
C          7.73188       12.02433       -0.79749
O          8.95102       14.07026       -0.87921
C          6.61877       11.20319       -0.13927
C          6.44112        9.79938       -0.73438
C          5.32848        8.97229       -0.07408
C          5.15213        7.56702       -0.66696
H         -0.84452       -1.87478        0.19291
H          0.88410       -1.93250       -0.22135
H         -0.28897       -1.29186       -1.39330
H         -0.80151        0.63239        0.18324
H          0.36150       -0.00293        1.34408
H          2.21508        0.31926       -0.33648
H          1.05060        0.95525       -1.49791
H          0.50025        2.84444        0.08779
H          1.66472        2.20861        1.24830
H          2.35537        3.18231       -1.59073
H          3.52105        2.54744       -0.43044
H          2.96089        4.42974        1.16023
H          1.79534        5.06447        0.00039
H          3.65213        5.41546       -1.67472
H          4.81819        4.78122       -0.51455
H          4.25032        6.65728        1.08066
H          3.08475        7.29246       -0.07913
H          6.94563       13.97522       -0.28468
H          8.11453       13.32414        0.88923
H          7.53839       12.14016       -1.87891
H          8.69930       11.49733       -0.71453
H          9.05822       14.95024       -0.49879
H          6.82474       11.11473        0.94437
H          5.66330       11.75624       -0.21748
H          7.39732        9.24788       -0.65642
H          6.23566        9.88733       -1.81802
H          5.53553        8.88577        1.00968
H          4.37168        9.52359       -0.15062
H          6.10890        7.01596       -0.58992
H          4.94426        7.65180       -1.75062
