17
1-THIAINDAN.gamout	Energy:    -707.2667455
S         -1.82328        1.42947       -0.20238
C         -1.61371       -1.27974       -0.21379
C         -0.22275       -0.70117       -0.06740
C         -2.59983       -0.19107        0.23782
C         -0.20162        0.70786       -0.09149
C          0.97977       -1.40207        0.02442
C          1.00525        1.41106       -0.04096
C          2.19540       -0.70588        0.08274
C          2.20409        0.69214        0.04438
H         -1.79206       -1.52975       -1.27673
H         -1.75269       -2.20794        0.36421
H         -3.57832       -0.25914       -0.25746
H         -2.75164       -0.21590        1.32889
H          0.97355       -2.49610        0.04747
H          1.01381        2.50370       -0.05934
H          3.13587       -1.25736        0.15969
H          3.15330        1.23318        0.08816
