40
1-TRIDECANAL.gamout	Energy:    -585.4410571
C          5.96762        1.48604        1.34838
C          4.94094        1.39093        2.48491
C          3.56840        0.87518        2.03535
C          7.35306        1.97648        1.79010
C          2.54205        0.67971        3.16166
C          8.36905        2.06947        0.64381
C          2.06641        1.91761        3.93969
C          9.74742        2.62208        1.03205
C          1.25216        2.95806        3.14461
C         10.55082        1.72936        1.97399
C          2.05923        4.08702        2.49213
C         11.94360        2.22511        2.28168
C          1.18944        5.09839        1.74283
O         12.43395        3.23788        1.84999
H          6.07184        0.49524        0.86640
H          5.57766        2.16016        0.56228
H          5.33172        0.72331        3.27635
H          4.83630        2.38447        2.95682
H          3.15650        1.54222        1.25649
H          3.70655       -0.10155        1.53760
H          7.25650        2.97098        2.26545
H          7.73387        1.30184        2.57930
H          1.65232        0.18185        2.73569
H          2.96159       -0.03922        3.88894
H          8.48912        1.07235        0.17855
H          7.94992        2.71647       -0.14701
H          1.43466        1.54498        4.76298
H          2.92082        2.41584        4.43308
H         10.34221        2.78657        0.11902
H          9.63510        3.62013        1.49083
H          0.65130        2.44064        2.37236
H          0.51533        3.42082        3.82529
H         10.04811        1.58359        2.94949
H         10.66336        0.70386        1.56782
H          2.63764        4.60936        3.27638
H          2.80592        3.66693        1.79723
H         12.52684        1.55791        2.97383
H          0.44848        5.57082        2.41071
H          1.79596        5.90488        1.30003
H          0.63073        4.61679        0.92217
