39
1-TRIDECENE.gamout	Energy:    -510.2935909
C          4.51362        4.09808        2.36219
C          5.72030        4.60470        1.56178
C          6.57450        3.51243        0.90000
C          3.62930        5.22205        2.91967
C          7.26936        2.51858        1.84234
C          2.41232        4.73903        3.72046
C          8.30472        3.14377        2.78099
C          1.54213        5.87899        4.26491
C          9.07876        2.12817        3.64168
C          0.27250        5.43746        5.00699
C          8.23144        1.42345        4.66184
C          0.51680        4.67840        6.31235
C          8.05735        0.10212        4.75674
H          4.85438        3.46109        3.19908
H          3.90375        3.43843        1.71563
H          5.35445        5.27788        0.76561
H          6.35280        5.23879        2.21013
H          5.93799        2.94321        0.19824
H          7.34199        4.00193        0.27301
H          3.28293        5.85903        2.08315
H          4.24453        5.88372        3.55897
H          6.51678        1.96248        2.42828
H          7.77615        1.75723        1.22209
H          2.75842        4.10073        4.55395
H          1.78969        4.08388        3.08147
H          7.82292        3.87920        3.45104
H          9.03379        3.71894        2.18230
H          2.15157        6.51671        4.93378
H          1.24657        6.53010        3.42240
H          9.58005        1.38501        2.99610
H          9.88364        2.67407        4.16867
H         -0.33269        6.33482        5.22474
H         -0.34634        4.81798        4.33101
H          7.71695        2.07375        5.38374
H          1.04182        3.72287        6.14928
H         -0.43424        4.44355        6.81666
H          1.12470        5.27351        7.01577
H          8.54469       -0.59225        4.06341
H          7.42381       -0.33445        5.53342
