42
1-TRIDECANOL.gamout	Energy:    -586.6470703
C          2.19135        0.60014        2.09077
C          2.13392        0.14386        3.55418
C          2.66825        1.17823        4.55356
C          1.65725       -0.43318        1.09017
C          2.60916        0.72494        6.01796
C          1.71123        0.02686       -0.37277
C          3.14422        1.76019        7.01647
C          1.17724       -1.00410       -1.37622
C          3.08530        1.31107        8.48167
C          1.22885       -0.53648       -2.83312
C          3.62104        2.34827        9.47541
C          0.69705       -1.56376       -3.82263
C          3.55751        1.89293       10.93461
O          0.78973       -1.02031       -5.12428
H          3.23613        0.85357        1.82844
H          1.62021        1.54167        1.98086
H          1.08859       -0.10827        3.81584
H          2.70403       -0.79816        3.66566
H          3.71367        1.42955        4.29152
H          2.09864        2.12040        4.44083
H          0.61278       -0.68741        1.35345
H          2.22925       -1.37440        1.19933
H          1.56336        0.47440        6.27934
H          3.17811       -0.21762        6.13112
H          2.75475        0.28275       -0.63710
H          1.13794        0.96727       -0.47956
H          4.19006        2.01012        6.75455
H          2.57568        2.70289        6.90229
H          1.75199       -1.94400       -1.27151
H          0.13363       -1.26048       -1.11196
H          3.65418        0.36878        8.59901
H          2.03964        1.06255        8.74626
H          0.64513        0.39290       -2.95987
H          2.26575       -0.28833       -3.12265
H          4.66612        2.59706        9.21260
H          3.05290        3.29007        9.35886
H         -0.35278       -1.81979       -3.56245
H          1.28196       -2.50439       -3.73143
H          3.95050        2.66588       11.61392
H          2.52076        1.67472       11.24322
H          4.14854        0.97525       11.09708
H          0.45250       -1.67124       -5.75122
