36
1-UNDECANOL.gamout	Energy:    -508.1288947
C          6.14827        3.25858        2.56831
C          5.58695        4.65345        2.26946
C          4.96828        4.80579        0.87187
C          6.93889        3.14048        3.88080
C          3.75856        3.90875        0.56708
C          6.10791        3.32074        5.15637
C          2.53215        4.10278        1.47077
C          6.90795        3.22741        6.46250
C          1.89296        5.49287        1.40044
C          7.50189        1.85690        6.75918
C          0.61907        5.61991        2.23801
O          6.44704        0.91657        6.85118
H          6.81179        2.96358        1.73458
H          5.32942        2.51659        2.57496
H          4.84526        4.93409        3.03778
H          6.40314        5.39235        2.36394
H          5.74640        4.60219        0.11387
H          4.68576        5.86299        0.72660
H          7.76565        3.87689        3.87608
H          7.42083        2.14765        3.89841
H          3.45851        4.08313       -0.48207
H          4.06514        2.84938        0.61204
H          5.30532        2.56352        5.18191
H          5.60776        4.30327        5.13628
H          1.77409        3.34849        1.19271
H          2.79758        3.87799        2.52060
H          6.24841        3.49611        7.30560
H          7.73052        3.96578        6.46006
H          2.61811        6.25792        1.73026
H          1.66516        5.73253        0.34474
H          8.22420        1.57358        5.96603
H          8.07354        1.91411        7.70825
H         -0.15242        4.90095        1.91278
H          0.81742        5.42621        3.30621
H          0.18511        6.62956        2.16010
H          6.82737        0.03937        6.98154
