29
2,2,4,4-TETRAMETHYLPENTANE.gamout	Energy:    -354.4867513
C          3.31463        2.08856        1.67832
C          1.80880        1.90061        2.05167
C          4.37278        2.82850        2.55898
C          1.58137        1.37169        3.48089
C          1.24944        0.85320        1.06131
C          0.99821        3.20017        1.85590
C          3.91150        4.21201        3.05599
C          5.61084        3.03547        1.65555
C          4.81815        1.97585        3.76660
H          3.31717        2.58234        0.68943
H          3.72997        1.08042        1.49797
H          1.85633        2.11245        4.24707
H          2.16020        0.45341        3.67126
H          0.51555        1.12947        3.62978
H          1.74271       -0.12454        1.19067
H          1.40197        1.17002        0.01583
H          0.16691        0.70654        1.21185
H         -0.07834        3.00507        1.99681
H          1.13139        3.60098        0.83690
H          1.28325        3.98852        2.56594
H          3.09696        4.13849        3.79237
H          4.74813        4.73774        3.54637
H          3.56307        4.84649        2.22476
H          5.97544        2.07662        1.25023
H          6.43891        3.49672        2.21932
H          5.37721        3.69338        0.80220
H          4.01472        1.83136        4.50167
H          5.65869        2.46220        4.28979
H          5.16230        0.97942        3.44225
