50
2,2,4,4,6,8,8-HEPTAMETHYLNONANE.gamout	Energy:    -629.2617565
C          0.99123        0.75310       -0.85042
C          2.11389        0.22961        0.09685
H          4.17982        2.94137        1.05876
H          2.60626        3.04485        0.27176
H          2.73474        2.34812        1.90273
H          2.20767        0.58496       -2.66788
H          0.75489        1.59260       -2.85277
H          2.16758        2.22894       -1.98572
C          3.43851        1.01484        0.31340
H          1.65673        0.02907        1.08482
H          2.40809       -0.75990       -0.29286
C          3.22873        2.41048        0.91759
H          7.32287        1.58028        2.44989
H          6.06446        2.53003        1.64760
C          1.56642        1.32258       -2.15739
H         -0.32061       -0.91623       -0.28680
H         -0.75303       -0.14869       -1.83323
C          0.09459       -0.45365       -1.19771
H          0.65893       -1.23061       -1.73897
H         -0.32589        1.42380        0.76744
C          0.09003        1.80626       -0.17929
H          0.61828        2.74335        0.04327
H         -0.75754        2.05680       -0.83788
C          4.38167        0.12243        1.17246
H          5.66702        1.54797        3.07484
H          3.90245        1.14303       -0.67933
C          5.93531        0.35615        1.26256
H          3.98995        0.10807        2.20728
H          4.26103       -0.90938        0.80190
C          6.26574        1.57322        2.14994
H          6.35007       -1.80808        1.38552
H          7.55713       -0.79622        2.22052
C          6.48746       -0.89285        1.98290
H          5.95736       -1.04027        2.93820
H          7.42301        0.31422       -2.71674
C          6.48983        0.52333       -0.18596
H          7.72702        1.97876       -2.16594
H          9.09243        0.87302       -2.45602
C          7.99761        0.46190       -0.59908
H          5.98614       -0.23306       -0.81349
H          6.11364        1.49450       -0.54628
C          8.06262        0.93372       -2.06710
H          9.92082        1.40667       -0.22616
H          8.53822        2.41738        0.24424
C          8.91373        1.38204        0.22202
H          9.03263        1.04114        1.26079
H          7.91430       -1.66046       -1.13499
C          8.55063       -0.97150       -0.55571
H          9.56111       -1.00604       -0.99494
H          8.62533       -1.36407        0.46655
