29
2,2,3,3-TETRAMETHYLPENTANE.gamout	Energy:    -354.4826804
C          1.96902        2.17155        2.44705
C          2.90133        3.42505        2.09682
C          4.26294        3.30670        2.84950
C          3.18401        3.48548        0.57883
C          2.20440        4.74467        2.49801
C          1.41123        2.26785        3.88547
C          0.75971        2.08487        1.48794
C          2.74168        0.83724        2.33520
C          5.16917        4.54370        2.84228
H          4.07171        3.03476        3.90145
H          4.82972        2.46491        2.41884
H          2.27697        3.71218       -0.00116
H          3.91235        4.27945        0.35235
H          3.60176        2.54047        0.19652
H          2.74602        5.61225        2.09062
H          1.17723        4.79837        2.10530
H          2.15242        4.87572        3.58998
H          2.20750        2.38909        4.63698
H          0.70544        3.10367        4.00536
H          0.86475        1.34410        4.13734
H          0.18657        3.02465        1.45035
H          1.05949        1.82997        0.46026
H          0.06832        1.29688        1.82898
H          2.04681       -0.00944        2.45973
H          3.51583        0.73643        3.11044
H          3.22731        0.71664        1.35372
H          4.72320        5.39361        3.38194
H          6.12761        4.31415        3.33622
H          5.40746        4.88598        1.82202
