26
2,2,3,3-TETRAMETHYLBUTANE.gamout	Energy:    -315.2310592
C          2.09314        2.23475        1.69110
C          3.51436        2.17198        2.41299
C          3.72596        0.81404        3.11963
C          3.65053        3.27982        3.48161
C          4.66763        2.35695        1.40169
C          1.99197        3.45889        0.75381
C          1.84189        0.97129        0.83749
C          0.94369        2.34055        2.71864
H          3.81102       -0.01854        2.40497
H          4.66019        0.83702        3.70460
H          2.90972        0.57646        3.82003
H          4.67716        3.29020        3.88339
H          3.45127        4.28282        3.07235
H          2.97170        3.12225        4.33360
H          4.61024        1.64452        0.56333
H          4.69131        3.37307        0.97921
H          5.63578        2.19129        1.90255
H          0.96589        3.54642        0.36009
H          2.22300        4.40272        1.27244
H          2.66508        3.37835       -0.11371
H          1.72391        0.06829        1.45556
H          0.91298        1.08817        0.25507
H          2.65550        0.78635        0.11864
H         -0.02773        2.26582        2.20264
H          0.97456        1.53489        3.46944
H          0.95237        3.30134        3.25560
