32
2,2,4,5-TETRAMETHYLHEXANE.gamout	Energy:    -393.7452408
C          0.79026        0.97273        1.10904
C          1.91312        1.31381        0.11785
C          2.84670        0.10100       -0.02137
C          1.38635        1.80366       -1.26494
C          0.24762        2.82826       -1.12278
C          2.52918        2.38801       -2.14135
C          2.58250        1.99292       -3.64605
C          3.72625        2.79314       -4.30117
C          2.88312        0.48928       -3.80438
C          1.26804        2.32444       -4.37779
H          1.20863        0.56603        2.04445
H          0.18082        1.84786        1.37820
H          0.11298        0.20597        0.69258
H          2.49942        2.14809        0.55271
H          3.68865        0.28868       -0.70405
H          3.27257       -0.18369        0.95474
H          2.29548       -0.77389       -0.40844
H          0.97114        0.91165       -1.77093
H         -0.04500        3.23820       -2.10065
H         -0.65681        2.39523       -0.66948
H          0.56299        3.67962       -0.49367
H          2.48350        3.49063       -2.08096
H          3.50684        2.11847       -1.70810
H          3.83443        2.53258       -5.36736
H          3.54230        3.87884       -4.23883
H          4.69120        2.58886       -3.80753
H          2.94944        0.21475       -4.87053
H          2.09947       -0.13923       -3.35186
H          3.84263        0.21988       -3.33232
H          1.02600        3.39820       -4.30890
H          1.34860        2.07233       -5.44864
H          0.41441        1.75807       -3.97268
