29
2,2,4-TRIMETHYLHEXANE.gamout	Energy:    -354.4911010
C          3.96034        2.63969        2.31097
C          5.29693        3.35357        1.95631
C          3.18056        1.94163        1.16471
C          5.02675        4.56620        1.04302
C          5.92747        3.85526        3.27071
C          6.29455        2.40608        1.26287
C          1.65915        2.21417        1.24116
C          3.47893        0.43600        1.08100
C          0.94244        1.70362        2.49505
H          4.16197        1.90547        3.11228
H          3.31315        3.40570        2.77468
H          3.50891        2.38932        0.20968
H          5.96315        5.10096        0.81084
H          4.57506        4.26711        0.08355
H          4.34428        5.28501        1.52698
H          5.24201        4.52843        3.81259
H          6.17117        3.01508        3.94215
H          6.86000        4.41121        3.07661
H          6.51766        1.52759        1.89090
H          5.91570        2.04525        0.29370
H          7.24739        2.92628        1.06747
H          1.49842        3.30410        1.15373
H          1.18196        1.76916        0.34893
H          4.55065        0.23932        0.92875
H          3.18518       -0.08573        2.00739
H          2.93176       -0.03389        0.24628
H          1.01486        0.60853        2.59538
H          1.35479        2.14915        3.41539
H         -0.12985        1.95676        2.46182
