27
2,2,3-TRIMETHYL-3-PENTANOL.gamout	Energy:    -390.3636720
C          1.46650       -0.95490       -1.35486
C          1.12291       -0.21125       -0.04867
C          2.06906        1.00303        0.08979
C         -0.39046        0.28591       -0.02124
C         -1.39703       -0.89502       -0.02071
C         -2.87316       -0.49453        0.07589
O         -0.60294        1.07571        1.15647
C         -0.69782        1.24573       -1.17980
C          1.40904       -1.16036        1.13751
H          2.52443       -1.26577       -1.34163
H          0.86374       -1.86666       -1.49318
H          1.32792       -0.31774       -2.24150
H          2.04083        1.65074       -0.79917
H          1.79529        1.61284        0.96231
H          3.10965        0.66134        0.21204
H         -1.24152       -1.51234       -0.92114
H         -1.16503       -1.55067        0.83592
H         -3.04011        0.18066        0.92904
H         -3.22877        0.01912       -0.83079
H         -3.50562       -1.38616        0.21430
H         -0.50662        0.50073        1.92723
H         -0.65799        0.73638       -2.15355
H         -1.70471        1.66649       -1.05281
H          0.00586        2.08850       -1.19275
H          2.47989       -1.41832        1.16269
H          1.17526       -0.69286        2.10925
H          0.85069       -2.10608        1.06870
