32
2,2,4-TRIMETHYLHEPTANE.gamout	Energy:    -393.7480735
C          5.14496        3.31834        1.22523
C          4.38241        2.03740        1.65869
C          2.85509        2.24899        1.55875
C          4.83157        0.81073        0.85072
C          6.42426        3.73599        2.00324
C          1.98299        1.09577        2.06978
C          7.00892        4.98024        1.30993
C          7.49699        2.63605        2.01216
C          6.06994        4.10438        3.45320
C          0.48563        1.41447        2.05223
H          5.40191        3.22846        0.15383
H          4.45367        4.17648        1.28661
H          4.60591        1.84078        2.72410
H          2.59200        2.46628        0.50458
H          2.59359        3.16191        2.12398
H          4.53998        0.91534       -0.20962
H          4.38208       -0.11928        1.23051
H          5.92288        0.68222        0.87877
H          2.29314        0.83820        3.09993
H          2.16282        0.19013        1.46542
H          7.90155        5.35059        1.84107
H          6.27577        5.80292        1.27575
H          7.30712        4.75606        0.27249
H          7.79174        2.35208        0.98886
H          8.40307        2.98787        2.53272
H          7.15383        1.72851        2.53251
H          5.66372        3.24450        4.00897
H          6.96205        4.45487        3.99752
H          5.31957        4.91109        3.48656
H         -0.10906        0.56467        2.42318
H          0.13574        1.64523        1.03147
H          0.24915        2.28714        2.68506
