32
2,2,5,5-TETRAMETHYLHEXANE.gamout	Energy:    -393.7509462
C          3.34448        1.49669        2.29881
C          4.39812        2.56723        1.98055
C          5.88290        2.11420        1.97354
C          6.30236        1.58469        3.35457
C          6.75108        3.33779        1.63413
C          6.12448        1.03008        0.91147
C          1.86045        1.95092        2.30504
C          1.44250        2.48067        0.92413
C          0.99028        0.72900        2.64372
C          1.61905        3.03518        3.36643
H          3.56009        1.05400        3.28653
H          3.43077        0.67063        1.57167
H          4.31178        3.39343        2.70748
H          4.18242        3.00972        0.99285
H          7.37771        1.34179        3.37139
H          5.75567        0.66945        3.62946
H          6.12017        2.33544        4.14159
H          7.82068        3.07210        1.61724
H          6.61742        4.14143        2.37705
H          6.49400        3.75326        0.64555
H          7.19458        0.77206        0.85294
H          5.81081        1.37321       -0.08854
H          5.57591        0.10248        1.13633
H          0.36756        2.72507        0.90684
H          1.62388        1.72970        0.13716
H          1.99080        3.39494        0.64965
H          1.12321       -0.07501        1.90110
H         -0.07875        0.99661        2.65945
H          1.24558        0.31323        3.63258
H          0.54916        3.29402        3.42390
H          2.16859        3.96223        3.14188
H          1.93131        2.69199        4.36678
