9
2,2,2-TRIFLUOROETHANOL.gamout	Energy:    -452.2328266
F         -0.43748       -0.77222        1.08282
C         -0.35217        0.01112       -0.00000
C          0.91657        0.84647       -0.00001
O          2.01681       -0.01685        0.00001
F         -0.43749       -0.77222       -1.08283
F         -1.42188        0.83071        0.00000
H          0.86538        1.49638       -0.89561
H          0.86537        1.49642        0.89556
H          2.82490        0.50981        0.00002
