29
2,2,3-TRIMETHYLHEXANE.gamout	Energy:    -354.4886391
C          4.45727        1.75478        2.15492
C          5.55902        1.82476        3.27637
C          3.08696        2.37243        2.55651
C          4.91819        2.34121        0.80828
C          5.00839        1.27946        4.61010
C          6.05860        3.26690        3.49661
C          6.75858        0.93833        2.87962
C          2.00885        1.35576        2.95834
C          0.66717        2.00112        3.31010
H          4.28493        0.67531        1.98416
H          3.21627        3.10589        3.37155
H          2.69420        2.95947        1.70748
H          5.03798        3.43601        0.85969
H          5.87103        1.91461        0.45979
H          4.16538        2.13561        0.02976
H          4.18920        1.89654        5.01057
H          5.80465        1.25944        5.37267
H          4.63362        0.24850        4.49822
H          6.57335        3.66329        2.60734
H          6.77765        3.30135        4.33224
H          5.23516        3.95634        3.74438
H          7.25160        1.28287        1.95755
H          6.44508       -0.10775        2.72339
H          7.52245        0.93890        3.67519
H          1.86796        0.64008        2.12740
H          2.36162        0.75366        3.81268
H          0.26457        2.57924        2.46079
H          0.76735        2.69678        4.16079
H         -0.08650        1.24556        3.58549
