32
2,2,6-TRIMETHYLHEPTANE.gamout	Energy:    -393.7531882
C         -0.09700       53.04290        0.89572
C          1.11647       53.04003       -0.04304
C          1.69079       54.46233       -0.19486
C          2.16694       52.02687        0.43349
C          2.77849       54.62486       -1.26410
C          3.24697       56.07665       -1.41805
C          4.34253       56.36968       -2.47933
C          5.63384       55.58906       -2.16825
C          4.65044       57.87942       -2.43601
C          3.84982       56.00448       -3.89344
H         -0.54485       52.03898        0.98163
H          0.19021       53.36494        1.91228
H         -0.88243       53.73073        0.54081
H          0.76685       52.71683       -1.04324
H          0.85908       55.15227       -0.42878
H          2.08658       54.79299        0.78533
H          3.01523       51.94803       -0.26418
H          1.73068       51.01942        0.53533
H          2.57180       52.31377        1.42035
H          3.63944       53.98386       -1.01099
H          2.38836       54.24912       -2.22719
H          2.37052       56.71018       -1.65095
H          3.61770       56.43093       -0.43770
H          6.43562       55.85929       -2.87588
H          5.48555       54.50008       -2.24358
H          6.00092       55.80795       -1.15096
H          5.42238       58.15159       -3.17524
H          3.75002       58.47682       -2.65674
H          5.01736       58.18470       -1.44147
H          2.91454       56.53549       -4.13908
H          4.59992       56.28139       -4.65297
H          3.66068       54.92432       -3.99814
