38
2,2,4,6,6-PENTAMETHYLHEPTANE.gamout	Energy:    -472.2500157
C          5.33961        3.41883        1.50076
C          6.75863        3.87763        1.93875
C          4.85217        2.02741        1.99056
C          7.05689        5.22660        1.25741
C          6.81064        4.07820        3.46225
C          7.84376        2.87427        1.52143
C          3.45585        2.05243        2.67147
C          5.02184        0.95321        0.90801
C          2.11787        2.18996        1.89063
C          1.72250        0.87157        1.20393
C          2.13783        3.31485        0.84516
C          1.02722        2.51873        2.92940
H          5.29754        3.45618        0.39835
H          4.64015        4.19417        1.84959
H          5.52112        1.72975        2.81674
H          7.05605        5.12984        0.15909
H          8.04451        5.61477        1.55690
H          6.30519        5.98786        1.52426
H          6.61821        3.14184        4.00949
H          6.06338        4.81838        3.79216
H          7.80250        4.44232        3.77680
H          7.84064        2.70849        0.43167
H          8.84330        3.25004        1.79615
H          7.71766        1.89690        2.01279
H          3.48904        2.87453        3.40756
H          3.37113        1.13130        3.27499
H          4.46355        1.19490       -0.01051
H          4.68363       -0.03531        1.25715
H          6.07998        0.85767        0.62245
H          2.40764        0.59591        0.39119
H          0.71320        0.95336        0.76815
H          1.70472        0.03813        1.92531
H          1.14923        3.40592        0.36620
H          2.87206        3.12599        0.04863
H          2.37485        4.28988        1.29876
H          0.03345        2.57879        2.45602
H          1.22371        3.48481        3.42192
H          0.97606        1.74702        3.71502
