29
2,2,3,4-TETRAMETHYLPENTANE.gamout	Energy:    -354.4846915
C          2.36357        2.88833        1.51101
C          3.73716        3.25932        2.19983
C          1.70542        1.53147        1.92694
C          1.35039        4.04685        1.52922
C          3.58605        3.83903        3.62246
C          4.66821        2.03002        2.26518
C          4.44621        4.32361        1.32849
C          0.74207        1.02956        0.83529
C          0.99570        1.51688        3.29115
H          2.63873        2.73463        0.45069
H          2.51566        0.78675        1.97540
H          0.48433        3.82134        0.88837
H          0.96294        4.25042        2.53929
H          1.79113        4.98106        1.15086
H          3.17748        3.10615        4.33369
H          4.57098        4.15231        4.00749
H          2.93339        4.72551        3.63967
H          5.68147        2.33553        2.57398
H          4.32116        1.27812        2.99061
H          4.75604        1.53590        1.28269
H          4.56642        3.97578        0.28880
H          3.89515        5.27639        1.30238
H          5.45136        4.54175        1.72544
H          1.24335        0.95511       -0.14389
H          0.35428        0.02933        1.08921
H         -0.13064        1.69293        0.71459
H          0.16324        2.23842        3.32810
H          0.56989        0.51910        3.48762
H          1.67466        1.74955        4.12424
