28
2,2,4-TRIMETHYL-1,3-PENTANEDIOL.gamout	Energy:    -465.4844215
O          0.86684       -2.29750       -2.72604
O          3.09933       -0.58382        1.25858
C          2.06284       -1.36552       -0.77623
C          0.81951       -2.16039       -1.31268
C         -0.61075       -1.68009       -0.96149
C          1.89677       -1.11514        0.73280
C          3.30637       -2.26048       -0.98967
C          2.29712       -0.03307       -1.51267
C         -1.03425       -0.36590       -1.63469
C         -1.61290       -2.79662       -1.30358
H          0.90361       -3.16332       -0.84310
H         -0.64355       -1.53783        0.13274
H          1.63064       -2.07009        1.23563
H          1.05559       -0.41433        0.89843
H          4.19721       -1.78868       -0.55322
H          3.17943       -3.24751       -0.51298
H          3.50837       -2.42019       -2.06267
H          1.52573        0.71485       -1.28118
H          2.29534       -0.19095       -2.60115
H          3.26615        0.39584       -1.21701
H         -0.48472        0.50428       -1.24906
H         -2.10631       -0.17715       -1.46079
H         -0.87006       -0.41668       -2.72192
H         -1.60417       -3.00472       -2.38450
H         -1.36659       -3.73485       -0.77877
H         -2.63704       -2.50939       -1.01557
H          1.67131       -2.77446       -2.96338
H          2.95757       -0.36850        2.18825
