26
2,2,4-TRIMETHYLPENTANE.gamout	Energy:    -315.2372512
C          3.43993        2.50388        1.45780
C          2.04025        2.10101        2.00571
C          4.68768        2.30252        2.35557
C          1.66607        2.97689        3.21829
C          1.97375        0.61615        2.41180
C          1.01327        2.35088        0.88210
C          5.36716        0.94121        2.13760
C          5.70222        3.43549        2.13267
H          3.60465        1.97289        0.50169
H          3.37078        3.57316        1.18942
H          4.36971        2.35631        3.41270
H          1.70255        4.04927        2.96246
H          0.64400        2.75060        3.56543
H          2.34465        2.81257        4.07071
H          2.63718        0.38945        3.26132
H          2.25655       -0.04314        1.57431
H          0.94894        0.34560        2.71731
H          1.24431        1.74589       -0.01050
H         -0.00663        2.09031        1.21089
H          1.00627        3.41047        0.57619
H          5.73687        0.85355        1.10072
H          4.68625        0.09666        2.31707
H          6.23345        0.81820        2.80910
H          6.60144        3.30147        2.75691
H          6.03185        3.46776        1.07916
H          5.26806        4.41933        2.37534
