23
2,2,3-TRIMETHYLBUTANE.gamout	Energy:    -275.9811241
C          3.26772        1.87356        2.39812
C          1.72408        2.05172        2.16757
C          1.11665        2.88676        3.31521
C          1.41266        2.74787        0.82756
C          1.03450        0.67009        2.18408
C          4.04579        3.19461        2.52297
C          3.96051        0.97873        1.35608
H          3.35651        1.35782        3.37405
H          1.35379        2.44739        4.29911
H          0.01870        2.92627        3.22397
H          1.47989        3.92591        3.31416
H          1.78639        2.17033       -0.03286
H          0.32297        2.85848        0.69840
H          1.85155        3.75709        0.77438
H          1.27601        0.11735        3.10772
H          1.33190        0.04454        1.32866
H         -0.06111        0.78443        2.13963
H          4.04823        3.75953        1.57557
H          3.64387        3.85356        3.30676
H          5.09854        2.99059        2.77855
H          5.01773        0.82799        1.62900
H          3.94855        1.43776        0.35334
H          3.50009       -0.01714        1.27569
