24
2,2-DIMETHYL-3-PENTANOL.gamout	Energy:    -351.1122403
C          1.34790        1.60956        0.47008
C          1.04435        0.17600       -0.00592
C          1.98885       -0.79651        0.72909
C         -0.42669       -0.21873        0.35097
C         -1.52759        0.65752       -0.26682
C         -2.92858        0.28667        0.22574
O         -0.67739       -1.59377        0.07597
C          1.29968        0.07648       -1.52229
H          2.41493        1.84259        0.31976
H          0.76778        2.36766       -0.07935
H          1.13127        1.73087        1.54505
H          1.87140       -0.70870        1.82239
H          1.77236       -1.83899        0.45585
H          3.04178       -0.57931        0.48524
H         -0.51176       -0.14206        1.45053
H         -1.32680        1.71813       -0.04399
H         -1.48799        0.56476       -1.36839
H         -3.01970        0.43752        1.31471
H         -3.70201        0.90036       -0.26331
H         -3.14655       -0.77267        0.02332
H         -0.69807       -1.70610       -0.88441
H          2.35734        0.28648       -1.75048
H          1.08801       -0.93644       -1.90635
H          0.69202        0.79415       -2.09656
