11
2,2-DICHLOROPROPANE.gamout	Energy:   -1037.7703931
C          2.09080        0.39556        1.62005
C          2.05889        1.91593        1.64865
C          0.99650        2.49761        2.56840
Cl         3.69138        2.52077        2.19165
Cl         1.75870        2.52343       -0.04425
H          2.29144        0.01086        2.63236
H          2.87509        0.03629        0.94007
H          1.11730        0.01110        1.27798
H          1.02214        3.59555        2.54644
H          1.17434        2.15654        3.60040
H          0.00037        2.15675        2.24571
