15
2,2-DINITROPROPANE.gamout	Energy:    -527.4796999
C          1.02005        0.06530        0.05560
C          2.52921       -0.07892        0.10887
C          3.03678       -1.39101        0.67578
N          3.07869        0.15285       -1.31824
O          2.92579        1.27057       -1.76643
O          3.56795       -0.79751       -1.89015
N          3.16199        1.06979        0.92899
O          2.42265        1.73699        1.62009
O          4.36864        1.17404        0.84519
H          0.73806        1.04945       -0.33966
H          0.60061       -0.04730        1.06363
H          0.60715       -0.72188       -0.59350
H          2.68806       -1.49098        1.71497
H          4.13335       -1.42322        0.65393
H          2.64241       -2.22792        0.08514
