24
2,2-DIMETHYL-CIS-3-HEXENE.gamout	Energy:    -314.0121463
C          3.07403        2.17359        1.02325
C          2.10410        2.35520        2.19645
C          4.41392        2.08376        1.00638
C          2.20450        1.17534        3.18998
C          2.36281        3.69047        2.93102
C          0.66862        2.38706        1.62980
C          5.40963        2.11333        2.13659
C          6.28311        0.85035        2.18656
H          2.58739        2.11204        0.04155
H          4.87557        1.95504        0.01698
H          1.45943        1.28336        3.99693
H          2.01512        0.21597        2.68201
H          3.19696        1.11301        3.66062
H          1.62617        3.83483        3.73999
H          3.36578        3.72856        3.38160
H          2.27655        4.54383        2.23921
H         -0.07167        2.51710        2.43629
H          0.42937        1.45021        1.09984
H          0.54002        3.21825        0.91687
H          4.91137        2.25434        3.10644
H          6.06880        2.99192        1.99937
H          7.03937        0.91888        2.98531
H          5.67225       -0.04828        2.37259
H          6.81701        0.69432        1.23389
