32
2,2-DIMETHYL-4-ETHYLHEXANE.gamout	Energy:    -393.7458555
C          3.26201        2.62026        2.22337
C          4.51179        2.98462        1.37654
C          1.98000        3.47626        2.03617
C          5.11536        1.74931        0.66963
C          5.54542        3.76302        2.21631
C          2.24264        4.96520        2.30600
C          0.92447        2.97816        3.03902
C          1.42276        3.30381        0.61410
C          5.70946        0.67706        1.58529
C          6.72960        4.33208        1.43271
H          3.53002        2.64427        3.29468
H          2.97580        1.57445        2.01871
H          4.19308        3.66058        0.56245
H          4.32278        1.29469        0.04920
H          5.88812        2.08554       -0.04247
H          5.02315        4.59237        2.72093
H          5.91793        3.11347        3.02946
H          2.62625        5.12685        3.32661
H          1.31247        5.54855        2.20507
H          2.97233        5.39071        1.59974
H         -0.02038        3.53687        2.93359
H          0.69811        1.90970        2.88800
H          1.27068        3.10127        4.07846
H          2.12879        3.65729       -0.15404
H          1.19881        2.24568        0.40049
H          0.48858        3.87480        0.48492
H          6.06433       -0.18383        0.99673
H          6.57046        1.05232        2.16233
H          4.97037        0.29585        2.30934
H          7.38297        4.93251        2.08569
H          7.35561        3.54356        0.98388
H          6.38948        4.98785        0.61232
