20
2,2-DIMETHYLBUTANE.gamout	Energy:    -236.7293148
C          3.21590        1.06325        2.77480
C          2.10025        1.88014        2.06547
C          1.97751        1.36116        0.61967
C          0.74712        1.68800        2.77748
C          2.45705        3.37891        2.03087
C          3.55136        1.44821        4.21770
H          4.13338        1.13682        2.16230
H          2.92492       -0.00283        2.74553
H          2.92103        1.49634        0.06446
H          1.72975        0.28643        0.60030
H          1.18600        1.89741        0.07000
H          0.75362        2.09887        3.79986
H          0.48238        0.61919        2.84614
H         -0.06179        2.19601        2.22609
H          2.47416        3.81955        3.04036
H          3.44747        3.54292        1.57366
H          1.71883        3.94460        1.43808
H          3.94210        2.47571        4.29249
H          2.67307        1.37729        4.87947
H          4.32266        0.77609        4.62765
