18
2,2-DIMETHYL-1-PROPANOL.gamout	Energy:    -272.5984517
C         -0.48782       -0.89393        1.25988
C         -0.45102       -0.00966        0.00002
C          0.83592        0.83449       -0.00001
O          1.96621       -0.01526        0.00001
C         -0.48783       -0.89401       -1.25980
C         -1.65343        0.95006       -0.00001
H         -0.46404       -0.28086        2.17704
H         -1.40763       -1.50133        1.28642
H          0.37776       -1.57240        1.28715
H          0.82963        1.49484       -0.89276
H          0.82964        1.49489        0.89270
H          2.76253        0.52942        0.00000
H         -1.40764       -1.50140       -1.28629
H         -0.46405       -0.28099       -2.17699
H          0.37775       -1.57247       -1.28703
H         -1.65183        1.59949        0.89183
H         -1.65181        1.59947       -0.89186
H         -2.60178        0.38837       -0.00001
