29
2,2-DIMETHYLHEPTANE.gamout	Energy:    -354.4939198
C          4.50581        3.81750        1.11182
C          3.21928        3.57217        1.93134
C          2.64705        2.15178        1.82606
C          1.36541        1.93825        2.63818
C          0.78807        0.52816        2.50347
C          5.87397        3.70569        1.84340
C          6.03949        2.34203        2.54038
C          6.02027        4.83242        2.88466
C          6.98806        3.86395        0.79028
H          4.46256        4.82832        0.66962
H          4.51462        3.12084        0.25381
H          2.43986        4.27660        1.59065
H          3.38772        3.82072        2.99449
H          2.44134        1.92828        0.76197
H          3.40320        1.41403        2.14684
H          0.60737        2.67895        2.32255
H          1.57002        2.15272        3.70365
H          0.53955        0.29530        1.45386
H         -0.13297        0.40521        3.09651
H          1.50738       -0.23501        2.84679
H          7.03697        2.26071        3.00432
H          5.93610        1.50881        1.82550
H          5.29441        2.19705        3.33887
H          5.25170        4.77423        3.67254
H          5.93809        5.82488        2.41006
H          7.00286        4.78168        3.38315
H          7.98608        3.82697        1.25844
H          6.90417        4.82728        0.25937
H          6.94320        3.06203        0.03422
