26
2,2-DIMETHYLHEXANE.gamout	Energy:    -315.2402063
C          3.42383        2.62514        2.43455
C          2.06039        1.88029        2.42713
C          4.64979        1.85908        1.92078
C          0.99155        2.84564        2.97655
C          2.10771        0.63087        3.32787
C          1.66743        1.46788        0.99503
C          5.97191        2.63665        2.03302
C          6.07136        3.87778        1.14197
H          3.30044        3.55185        1.84577
H          3.62695        2.95269        3.47195
H          4.75732        0.91668        2.48476
H          4.50047        1.56887        0.86487
H          0.91547        3.75466        2.35645
H         -0.00303        2.36932        2.99580
H          1.23117        3.16256        4.00553
H          2.41044        0.89036        4.35670
H          1.11619        0.15122        3.38432
H          2.81479       -0.12485        2.95040
H          1.64060        2.34165        0.32213
H          0.66607        1.00572        0.98151
H          2.37178        0.73649        0.56782
H          6.80059        1.95126        1.78072
H          6.13157        2.92810        3.08799
H          5.91533        3.62060        0.07984
H          5.32493        4.64370        1.40841
H          7.06463        4.34844        1.22516
