32
2,2-DIMETHYL-3-ETHYLHEXANE.gamout	Energy:    -393.7429111
C          0.14415       -0.13782       -0.69034
C          0.94507        1.16481       -0.67787
C          2.17865        1.11064        0.23360
C          3.02857        2.41443        0.27299
C          2.86616        3.23931        1.60448
C          4.50092        2.10791       -0.08708
C          3.48820        2.50785        2.81086
C          3.54199        4.61987        1.45754
C          1.37091        3.49481        1.88927
C          4.70819        1.72062       -1.55435
H         -0.73075       -0.07206       -1.35788
H          0.76083       -0.98588       -1.03442
H         -0.22692       -0.39123        0.31764
H          0.29020        1.99643       -0.36434
H          1.26932        1.40785       -1.70644
H          2.81018        0.26935       -0.10153
H          1.85645        0.83309        1.25167
H          2.64485        3.07980       -0.52448
H          5.13463        2.98226        0.12954
H          4.87266        1.29374        0.56070
H          3.33459        3.08926        3.73538
H          3.03566        1.51553        2.96906
H          4.57370        2.36644        2.68927
H          3.34432        5.24399        2.34497
H          3.15582        5.16335        0.57841
H          4.63543        4.54850        1.35334
H          0.88972        4.02812        1.05225
H          0.81041        2.56360        2.06292
H          1.25224        4.11883        2.79054
H          5.76742        1.49824       -1.76342
H          4.12513        0.82783       -1.83394
H          4.40155        2.53757       -2.22980
