21
2,2-DIMETHYL-1-BUTANOL.gamout	Energy:    -311.8517317
C          0.00053        1.26137       -0.94937
C         -0.02671       -0.00000       -0.06520
C          1.22115        0.00000        0.84034
O          2.39422       -0.00000        0.04972
C         -1.26151       -0.00000        0.87399
C         -2.63742        0.00000        0.20312
C          0.00053       -1.26138       -0.94936
H          0.94486        1.31207       -1.51089
H         -0.82809        1.26790       -1.67500
H         -0.07901        2.17719       -0.33861
H          1.18333        0.89288        1.49900
H          1.18333       -0.89287        1.49901
H          3.16037       -0.00003        0.63594
H         -1.18946       -0.88188        1.53708
H         -1.18946        0.88187        1.53708
H         -2.79038        0.88916       -0.42912
H         -2.79038       -0.88915       -0.42913
H         -3.43558       -0.00001        0.96316
H          0.94486       -1.31207       -1.51089
H         -0.07899       -2.17719       -0.33860
H         -0.82810       -1.26792       -1.67499
