32
2,3,4,4-TETRAMETHYLHEXANE.gamout	Energy:    -393.7378869
C         -0.12548        1.72436        0.39789
C          0.71310        2.98062        0.65409
C          2.09030        3.09053       -0.06731
C          2.69866        4.51006        0.26879
C          3.01875        1.98821        0.48601
C          1.92542        2.86927       -1.58405
C          1.92576        5.72833       -0.34510
C          4.21165        4.61919        0.01318
C          1.90323        6.90715        0.64254
C          2.43726        6.21330       -1.71295
H         -1.05540        1.76477        0.98843
H         -0.41971        1.62736       -0.65953
H          0.39742        0.79777        0.68381
H          0.89741        3.07002        1.74013
H          0.09870        3.85542        0.38394
H          2.56877        4.60023        1.36302
H          3.97658        1.94480       -0.05426
H          2.55315        0.99525        0.38757
H          3.24146        2.14636        1.55505
H          1.62619        1.83133       -1.80063
H          1.15834        3.52881       -2.01979
H          2.87022        3.04804       -2.12171
H          0.87643        5.42128       -0.48844
H          4.56888        5.64109        0.21822
H          4.78828        3.94786        0.66547
H          4.48322        4.38378       -1.02843
H          1.35145        7.76714        0.22778
H          1.42235        6.62788        1.59431
H          2.92430        7.25601        0.87571
H          1.77158        6.99943       -2.10679
H          2.47833        5.41186       -2.46436
H          3.44495        6.65346       -1.64069
