32
2,3,3,5-TETRAMETHYLHEXANE.gamout	Energy:    -393.7412484
C          0.05517       35.87375       -0.10897
C          1.57333       35.83858        0.12767
C          2.22855       37.23987        0.00081
C          1.87188       35.22138        1.50304
C          2.86710       37.64404       -1.36361
C          3.31989       39.15046       -1.25689
C          4.10484       36.75031       -1.59568
C          1.89073       37.44309       -2.53897
C          4.30659       39.59438       -2.35107
C          2.15566       40.15477       -1.20796
H         -0.37954       34.86178       -0.05369
H         -0.44390       36.49047        0.65917
H         -0.20690       36.29402       -1.09150
H          2.01502       35.16749       -0.63079
H          1.47665       37.99162        0.29379
H          3.03266       37.32169        0.75303
H          2.95559       35.10047        1.66623
H          1.40273       34.22917        1.61022
H          1.48376       35.86167        2.31482
H          3.85896       39.22883       -0.29322
H          4.54059       36.90073       -2.59504
H          3.84449       35.68299       -1.51821
H          4.89122       36.95490       -0.84935
H          0.94190       37.98180       -2.39370
H          2.33222       37.79530       -3.48561
H          1.64856       36.37756       -2.67747
H          4.55880       40.65991       -2.22338
H          5.25234       39.03376       -2.32536
H          3.87723       39.48466       -3.36138
H          2.53203       41.16034       -0.95865
H          1.39332       39.89953       -0.45624
H          1.64818       40.23372       -2.18366
