29
2,3,3,4-TETRAMETHYLPENTANE.gamout	Energy:    -354.4786784
C          3.65223        1.95599        2.42175
C          3.43852        3.46968        2.02405
C          2.05986        4.14027        2.40584
C          3.64581        3.58150        0.49492
C          4.56117        4.32031        2.66456
C          3.98871        1.67106        3.89834
C          2.54607        0.98803        1.96884
C          0.85610        3.79964        1.50712
C          1.63956        3.99567        3.87810
H          4.55948        1.66908        1.85628
H          2.24758        5.21911        2.24507
H          4.68592        3.32945        0.23098
H          2.99092        2.91015       -0.07928
H          3.45671        4.60907        0.14164
H          4.57012        5.33282        2.22856
H          4.44709        4.43443        3.75224
H          5.55224        3.87352        2.48057
H          3.14154        1.86384        4.57248
H          4.25570        0.60724        4.01348
H          4.84611        2.25643        4.26112
H          1.63272        1.09116        2.57617
H          2.26448        1.12011        0.91346
H          2.88976       -0.05327        2.08528
H          1.05186        3.99094        0.44193
H          0.53450        2.75273        1.60637
H         -0.00379        4.42863        1.79252
H          2.45123        4.23031        4.58262
H          0.80775        4.68471        4.10075
H          1.28033        2.97916        4.10451
