29
2,3,4-TRIMETHYLHEXANE.gamout	Energy:    -354.4881371
C          2.04289        1.69810        4.37672
C          3.10246        1.16108        3.36519
C          3.31713        2.03989        2.08973
C          4.41489        0.77211        4.06407
C          2.36171        3.08313        4.97958
C          0.62470        1.65237        3.78446
C          4.42079        3.10460        2.20732
C          3.57191        1.15846        0.85549
C          1.56284        3.42403        6.24195
H          2.05895        0.97687        5.21705
H          2.66815        0.21285        2.99898
H          2.37085        2.57741        1.90269
H          4.22594        0.02377        4.85138
H          4.91520        1.63084        4.53854
H          5.13247        0.32606        3.35644
H          2.18541        3.86238        4.21589
H          3.43526        3.13959        5.22607
H          0.38225        0.64443        3.40921
H          0.50951        2.35859        2.94508
H         -0.13807        1.91206        4.53478
H          4.44124        3.73079        1.29996
H          5.41907        2.64760        2.30703
H          4.27555        3.77505        3.06712
H          4.48824        0.55404        0.97319
H          3.69704        1.76980       -0.05378
H          2.73573        0.46250        0.67852
H          0.47771        3.45860        6.05371
H          1.85429        4.40850        6.64314
H          1.73634        2.67781        7.03619
