29
2,3,3-TRIMETHYLHEXANE.gamout	Energy:    -354.4873194
C          4.28620        3.34807        2.12491
C          2.73253        3.35731        2.04188
C          4.89314        2.15588        2.95787
C          4.79129        4.70038        2.66812
C          4.80538        3.22509        0.67316
C          1.90367        3.48826        3.32740
C          4.25644        0.79349        2.63683
C          4.94057        2.35571        4.48360
C          0.41130        3.67183        3.03743
H          2.40018        2.45068        1.50581
H          2.45769        4.20016        1.37995
H          5.94925        2.09635        2.63236
H          4.40900        4.93112        3.67344
H          5.89305        4.71915        2.72217
H          4.48046        5.52256        2.00187
H          5.90611        3.27932        0.64020
H          4.50299        2.27699        0.20079
H          4.41316        4.04216        0.04543
H          2.26308        4.34267        3.92634
H          2.03274        2.59466        3.96064
H          4.83677       -0.01941        3.10356
H          3.22782        0.72001        3.02642
H          4.21907        0.58614        1.55619
H          5.42235        1.48430        4.95782
H          5.52437        3.24187        4.77342
H          3.93930        2.45427        4.92970
H          0.22628        4.58301        2.44279
H          0.00534        2.82016        2.46508
H         -0.17591        3.75734        3.96623
