32
2,3,5-TRIMETHYLHEPTANE.gamout	Energy:    -393.7443941
C          4.03255        2.84330        2.61887
C          3.35407        3.58568        1.44110
C          5.10006        1.77399        2.27930
C          1.82946        3.81396        1.65097
C          4.05829        4.90890        1.10598
C          6.34393        2.29424        1.53562
C          4.49481        0.57338        1.53858
C          1.02159        2.51408        1.54702
C          1.48030        4.56222        2.94339
C          7.20474        3.28886        2.31801
H          4.47396        3.58217        3.30996
H          3.26366        2.32451        3.21378
H          3.42929        2.94676        0.54285
H          5.45646        1.39737        3.25731
H          1.50611        4.45439        0.80867
H          3.99220        5.62618        1.94102
H          3.60328        5.38483        0.22219
H          5.12519        4.76112        0.88789
H          6.04056        2.73458        0.56829
H          6.96874        1.42216        1.27366
H          4.18000        0.83539        0.51434
H          5.22717       -0.24530        1.45326
H          3.61187        0.17689        2.06546
H          1.19890        2.00863        0.58428
H          1.27563        1.80098        2.34974
H         -0.05911        2.71602        1.62440
H          0.40512        4.80144        2.97126
H          1.70267        3.95821        3.83919
H          2.02844        5.51224        3.03849
H          6.66104        4.21408        2.56628
H          7.55622        2.85004        3.26739
H          8.09512        3.57962        1.73856
