32
2,3,6-TRIMETHYLHEPTANE.gamout	Energy:    -393.7493835
C          3.75352        3.20586        2.45568
C          4.58213        3.60921        3.69806
C          5.63985        4.70183        3.36575
C          5.22270        2.37680        4.35509
C          2.57415        2.25502        2.71369
C          5.01861        5.99021        2.80508
C          6.52139        5.06064        4.57238
C          1.72332        1.92331        1.47195
C          0.78857        0.73944        1.74727
C          0.92361        3.12803        0.96373
H          4.43317        2.74477        1.71299
H          3.36753        4.11839        1.97842
H          3.88444        4.05499        4.43617
H          6.30215        4.28124        2.58284
H          4.47490        1.59869        4.56730
H          5.70335        2.62242        5.31230
H          5.99070        1.92956        3.69898
H          1.91672        2.68470        3.49459
H          2.94765        1.30363        3.12750
H          5.80058        6.74201        2.61350
H          4.30413        6.43148        3.52244
H          4.48544        5.83064        1.85686
H          7.22973        5.86234        4.30950
H          7.11598        4.20845        4.92963
H          5.90966        5.42259        5.41764
H          2.41972        1.61676        0.66643
H          1.35138       -0.16120        2.04190
H          0.08174        0.97197        2.56340
H          0.19457        0.48620        0.85486
H          0.36164        2.87243        0.05110
H          0.19224        3.46427        1.72012
H          1.57087        3.98484        0.72083
