26
2,3,3-TRIMETHYLPENTANE.gamout	Energy:    -315.2330570
C          4.27692        1.86728        2.80001
C          2.92166        2.08099        2.02456
C          1.98639        2.97160        2.89567
C          2.25437        0.70773        1.79951
C          3.15296        2.75341        0.65614
C          4.94622        3.16433        3.28782
C          5.31777        1.03424        2.03210
C          0.52405        3.10004        2.45473
H          4.00558        1.28837        3.70373
H          2.41615        3.98565        2.94593
H          2.00606        2.58312        3.93091
H          2.04004        0.20615        2.75898
H          1.30314        0.80623        1.25450
H          2.89116        0.03530        1.20568
H          2.19734        2.92263        0.13530
H          3.65029        3.73175        0.75612
H          3.77177        2.12832       -0.00654
H          5.88322        2.92748        3.81793
H          5.20935        3.82937        2.44835
H          4.31689        3.73556        3.98554
H          5.70772        1.57359        1.15267
H          6.18099        0.81499        2.68157
H          4.92262        0.06830        1.68403
H          0.42829        3.46440        1.41876
H         -0.00393        3.82170        3.09939
H         -0.02339        2.14674        2.52326
