32
2,3,4,5-TETRAMETHYLHEXANE.gamout	Energy:    -393.7389790
C          0.79838       19.74888       -0.07766
C          1.40369       21.04233        0.49520
C          0.84394       22.36957       -0.11881
C          1.24473       21.04773        2.02492
C          1.59984       22.92480       -1.37192
C         -0.66861       22.30012       -0.39142
C          2.82633       23.83705       -1.05594
C          1.95100       21.86355       -2.42641
C          2.41039       25.15857       -0.39174
C          3.96337       23.17934       -0.25976
H          1.31346       18.87048        0.34569
H         -0.26943       19.64932        0.17640
H          0.88620       19.68394       -1.17156
H          2.48516       21.00920        0.28851
H          0.96908       23.13325        0.66723
H          1.77467       21.89777        2.48588
H          1.64430       20.12281        2.47312
H          0.18299       21.12187        2.31730
H          0.88120       23.60700       -1.86272
H         -1.06764       23.30170       -0.62073
H         -1.22806       21.91865        0.47840
H         -0.90869       21.64867       -1.24770
H          3.24447       24.10321       -2.04547
H          2.39073       22.34016       -3.31821
H          1.05916       21.31108       -2.76138
H          2.68019       21.12492       -2.05784
H          3.26983       25.84447       -0.30699
H          1.62873       25.67578       -0.97262
H          2.02116       25.00488        0.62893
H          4.83127       23.85759       -0.20430
H          4.31383       22.24116       -0.71862
H          3.66307       22.95659        0.77746
