24
2,3,4-TRIMETHYL-2-PENTENE.gamout	Energy:    -314.0185424
C          4.48426        2.77486        2.05400
C          3.20123        2.04021        1.65756
C          1.96876        2.59219        1.77158
C          3.41911        0.63692        1.12400
C          5.26169        3.27248        0.81977
C          5.38854        1.92774        2.96882
C          1.69859        4.00271        2.25073
C          0.68649        1.86273        1.43297
H          4.20898        3.66438        2.63845
H          2.60277        0.28798        0.47852
H          4.34424        0.57924        0.52820
H          3.53166       -0.09866        1.94127
H          4.64375        3.94652        0.20539
H          5.58360        2.43619        0.17706
H          6.16915        3.82324        1.12035
H          5.78697        1.03649        2.45695
H          6.25424        2.52057        3.30803
H          4.84564        1.58448        3.86479
H          1.03612        4.52388        1.53635
H          2.59643        4.62061        2.37289
H          1.15913        3.99520        3.21598
H         -0.02657        1.94361        2.27299
H          0.18548        2.32570        0.56238
H          0.81950        0.79542        1.21795
