32
2,3,4-TRIMETHYLHEPTANE.gamout	Energy:    -393.7394366
C          3.86071        2.92555        2.75719
C          2.83777        2.22974        1.81147
C          1.37505        2.78361        1.82099
C          2.78569        0.70929        2.05031
C          5.27452        2.27379        2.69003
C          3.99049        4.43774        2.51152
C          0.80400        3.04006        3.22258
C          1.12613        3.98651        0.89692
C          5.62432        1.33166        3.85003
C          7.00502        0.68346        3.71697
H          3.48900        2.79547        3.79097
H          3.21685        2.37808        0.78153
H          0.77322        1.96445        1.38855
H          2.42077        0.46946        3.06383
H          2.10197        0.22914        1.33265
H          3.76725        0.23093        1.92982
H          6.03247        3.07574        2.66848
H          5.40069        1.73905        1.73040
H          4.74019        4.87142        3.19286
H          4.32119        4.65013        1.47964
H          3.05080        4.97894        2.68176
H         -0.27303        3.26545        3.16221
H          0.91636        2.16454        3.88176
H          1.28791        3.89713        3.71881
H          1.56794        4.92287        1.26911
H          1.53107        3.80528       -0.11212
H          0.04270        4.15915        0.78956
H          5.57173        1.89736        4.79872
H          4.85865        0.54166        3.93286
H          7.21985        0.01592        4.56681
H          7.07644        0.08191        2.79478
H          7.80771        1.44012        3.67893
