32
2,3,3,4-TETRAMETHYLHEXANE.gamout	Energy:    -393.7380633
C          0.72748       35.94902       -1.55395
C          0.84747       36.38457       -0.08987
C          1.95744       37.43083        0.17384
C          1.73049       38.27646        1.48935
C          3.33664       36.74982        0.11002
C          0.50414       39.25004        1.28638
C          1.46488       37.32592        2.67816
C          2.99689       39.09735        1.81757
C         -0.04298       39.85522        2.59137
C          0.77087       40.38945        0.28701
H         -0.07815       35.20776       -1.68326
H          0.49598       36.80554       -2.21001
H          1.65523       35.48829       -1.93083
H          1.02911       35.49406        0.53798
H         -0.13082       36.77994        0.22816
H          1.92792       38.14720       -0.66649
H          4.16446       37.47353        0.09393
H          3.42861       36.14333       -0.80427
H          3.49925       36.07179        0.96472
H         -0.31443       38.64020        0.86613
H          1.49974       37.86318        3.63810
H          2.23019       36.53506        2.72648
H          0.48173       36.83424        2.61096
H          3.36845       39.66262        0.94837
H          2.79950       39.82102        2.62465
H          3.81599       38.44899        2.16339
H         -0.88384       40.53246        2.36907
H         -0.41745       39.09318        3.29048
H          0.71874       40.45219        3.12116
H         -0.16458       40.92970        0.06694
H          1.17265       40.03440       -0.67421
H          1.48150       41.12802        0.69287
