17
2,3-DICHLORO-2-METHYLBUTANE.gamout	Energy:   -1116.2833100
C         41.01059       20.05769        0.02641
C         39.46130       20.06646        0.03613
C         38.84801       20.66919        1.29814
C         38.92185       20.74431       -1.22882
Cl        38.91495       18.30432       -0.05634
C         41.66307       21.43350       -0.07706
Cl        41.68156       19.22067        1.50301
H         41.33092       19.42414       -0.81210
H         37.75055       20.62816        1.24106
H         39.17698       20.12577        2.19336
H         39.14491       21.72633        1.39925
H         37.83625       20.58642       -1.29817
H         39.38614       20.33018       -2.13702
H         39.10690       21.82995       -1.20066
H         42.75675       21.32395       -0.06223
H         41.38567       21.93204       -1.01889
H         41.37622       22.08215        0.76416
