32
2,3-DIMETHYL-3-ETHYLHEXANE.gamout	Energy:    -393.7378964
C         -0.06298       36.96405        0.16643
C          1.44649       36.94611       -0.08814
C          2.08450       38.33242        0.07125
C          3.63760       38.43929       -0.03850
C          3.98291       39.97521       -0.15957
C          4.22803       37.83882        1.28108
C          4.14186       37.66131       -1.26961
C          5.44302       40.34896        0.14494
C          3.59800       40.59594       -1.51509
C          5.64458       37.25020        1.25870
H         -0.50850       35.96436        0.03602
H         -0.29511       37.29939        1.19195
H         -0.57963       37.65055       -0.52615
H          1.63111       36.56045       -1.10567
H          1.91792       36.22261        0.60057
H          1.79248       38.74317        1.05649
H          1.61960       38.99840       -0.67516
H          3.36562       40.47271        0.61297
H          3.55518       37.03241        1.61711
H          4.16189       38.61234        2.06739
H          3.58851       37.94154       -2.17953
H          5.21030       37.84645       -1.46246
H          4.02057       36.57496       -1.13794
H          5.58360       41.43683        0.03180
H          5.74162       40.09091        1.17076
H          6.14797       39.86110       -0.54910
H          3.68560       41.69383       -1.46855
H          2.56588       40.36581       -1.81912
H          4.26791       40.25349       -2.32106
H          5.92053       36.89481        2.26556
H          6.41231       37.97252        0.94668
H          5.71534       36.38353        0.58283
