15
2,3-DIHYDROXYBUTANOATE-1.gamout	Energy:    -457.0319860
O          1.75821        1.13854        0.56732
O         -0.33380       -1.87123        0.69199
O         -0.80320        1.60932        0.09106
O         -2.06251       -0.24316       -0.23322
C          1.43788       -0.21002        0.30062
C          0.03007       -0.52110        0.85334
C          1.56302       -0.54751       -1.18868
C         -1.05375        0.37870        0.17117
H          2.16003       -0.84616        0.85372
H          0.05661       -0.23818        1.92867
H          1.27795       -1.59613       -1.37123
H          2.59953       -0.38536       -1.52804
H          0.90347        0.10577       -1.78368
H          0.89219        1.60443        0.40515
H         -1.21689       -1.74832        0.25892
