29
2,3-BENZOFLUORENE.gamout	Energy:    -654.1816042
C          4.64210        4.57731        1.07519
C          3.35605        5.28607        1.16312
C          5.68172        5.55586        0.93884
C          4.94395        3.23008        1.10423
C          3.59607        6.67673        1.08205
C          2.05013        4.80067        1.30355
C          5.07994        6.94755        0.93522
C          6.99596        5.17060        0.83493
C          6.29762        2.80261        0.99867
C          2.53594        7.57968        1.14094
C          0.99097        5.71144        1.36255
C          7.34040        3.78607        0.86210
C          6.65842        1.42452        1.02416
C          1.23025        7.09073        1.28199
C          8.68881        3.34509        0.75764
C          7.97675        1.03166        0.92065
C          9.00309        2.00149        0.78581
H          4.15754        2.47684        1.20786
H          1.85636        3.72639        1.36649
H          5.46860        7.56655        1.76407
H          5.30977        7.49231        0.00176
H          7.79496        5.91137        0.73063
H          2.71569        8.65709        1.07868
H         -0.03327        5.34497        1.47254
H          5.86626        0.67725        1.12818
H          0.39142        7.79037        1.32954
H          9.47845        4.09508        0.65379
H          8.23565       -0.03033        0.94215
H         10.04473        1.67978        0.70441
