16
2,3-HEXADIENE.gamout	Energy:    -234.2702438
C          1.11560       -0.26494       -0.18933
C          2.50822        0.24515        0.09141
C          2.82935        1.13070        1.00682
C          3.14305        2.01111        1.92937
C          3.53696        1.68952        3.35522
C          4.95689        2.15685        3.70235
H          1.06323       -1.35995       -0.05783
H          0.82340       -0.05372       -1.23293
H          0.37314        0.19821        0.47717
H          3.31507       -0.16662       -0.53321
H          3.14231        3.07725        1.65453
H          3.44444        0.60414        3.52318
H          2.81926        2.17870        4.04016
H          5.70629        1.65194        3.07131
H          5.19845        1.94253        4.75628
H          5.07147        3.24319        3.54796
