20
2,3-DIMETHYLBUTANE.gamout	Energy:    -236.7283323
C          3.22785        2.34984        1.87848
C          3.81084        3.76333        1.72433
C          4.29497        1.31215        1.49524
C          1.90334        2.16307        1.08703
C          1.32090        0.74924        1.24005
C          0.83586        3.19999        1.47127
H          2.98620        2.20218        2.95029
H          3.13782        4.54343        2.11004
H          4.01658        3.99221        0.66350
H          4.76365        3.85564        2.27102
H          4.53574        1.37285        0.41893
H          3.97924        0.28034        1.70982
H          5.22969        1.48966        2.05175
H          2.14477        2.31170        0.01530
H          1.99421       -0.03028        0.85371
H          0.36813        0.65703        0.69326
H          1.11521        0.51941        2.30068
H          0.59420        3.13725        2.54727
H         -0.09839        3.02353        0.91364
H          1.15175        4.23222        1.25894
