11
2,3-DIHYDROFURAN.gamout	Energy:    -230.9131020
O          1.21234       -0.04311        0.09634
C         -1.06128        0.75265       -0.02608
C          0.43086        1.17219        0.06407
C         -0.95040       -0.75738       -0.03578
C          0.34427       -1.08765        0.03557
H         -1.54743        1.14619       -0.93667
H         -1.64915        1.12706        0.83103
H          0.76200        1.76564       -0.80385
H          0.65935        1.74705        0.97649
H         -1.78710       -1.45220       -0.09111
H          0.81415       -2.07273        0.05262
