32
2,3-DIMETHYL-4-ETHYLHEXANE.gamout	Energy:    -393.7374831
C          0.16937       29.30024       -1.07355
C          1.30875       30.02311       -0.34970
C          1.01780       31.46929        0.11914
C          0.13725       31.61890        1.41958
C          2.33686       32.26227        0.29502
C         -1.21243       32.36679        1.19434
C         -0.06036       30.33232        2.23751
C         -1.00345       33.81236        0.71899
C         -2.21052       31.63768        0.28450
C          3.14135       32.52162       -0.98123
H          0.49271       28.30259       -1.41436
H         -0.71805       29.15689       -0.43899
H         -0.15698       29.86094       -1.96618
H          2.16488       30.05812       -1.04321
H          1.65414       29.41347        0.50196
H          0.47520       31.95769       -0.71117
H          0.70476       32.28941        2.08962
H          2.09328       33.23832        0.74808
H          2.97127       31.73941        1.03642
H         -1.68077       32.43082        2.19499
H         -0.63154       30.55283        3.15473
H          0.90237       29.90225        2.55532
H         -0.60681       29.54636        1.69486
H         -1.96273       34.35429        0.67355
H         -0.33842       34.37049        1.39897
H         -0.56131       33.85727       -0.29073
H         -3.16465       32.18856        0.23959
H         -2.43790       30.62202        0.64473
H         -1.83668       31.55031       -0.74877
H          4.01574       33.15845       -0.76968
H          3.52110       31.59690       -1.44423
H          2.53011       33.04258       -1.73868
