21
2,3-DIMETHYL-1-PENTENE.gamout	Energy:    -274.7610908
C          2.08678        2.86927        3.09361
C          2.66642        2.10099        1.89881
C          4.85637        1.86048        3.13466
C          4.17666        1.88497        1.97889
C          4.88189        1.69410        0.65693
C          1.94183        0.74822        1.67656
C          0.46176        0.85925        1.30225
H          2.13053        2.27211        4.01960
H          1.03115        3.13125        2.92333
H          2.63934        3.80527        3.26949
H          2.48678        2.71236        0.99225
H          5.93584        1.68081        3.15215
H          4.37514        2.01726        4.10297
H          4.79352        2.60267        0.03390
H          4.44088        0.87123        0.06750
H          5.95195        1.47743        0.79269
H          2.46506        0.18972        0.88189
H          2.05399        0.13962        2.59217
H         -0.13780        1.32273        2.10184
H          0.03042       -0.13612        1.10701
H          0.32193        1.46392        0.38947
