21
2,3-DIMETHYL-2-BUTANOL.gamout	Energy:    -311.8586382
C          1.36646        1.30251       -0.41374
C          0.61921        0.03991        0.04763
C          0.72162       -0.10723        1.57403
C         -0.85010        0.03159       -0.47252
C         -1.57244       -1.29075       -0.17452
C         -1.68858        1.22667        0.00201
O          1.22241       -1.09729       -0.58118
H          2.43532        1.22389       -0.14969
H          1.29552        1.41266       -1.50723
H          0.98057        2.21858        0.05875
H          0.23848        0.72804        2.10452
H          0.26410       -1.04846        1.91271
H          1.78147       -0.12035        1.88300
H         -0.74990        0.10455       -1.57094
H         -1.77755       -1.41092        0.90269
H         -2.54434       -1.32115       -0.69404
H         -0.97341       -2.14885       -0.50857
H         -1.24779        2.19465       -0.28181
H         -2.69453        1.18296       -0.44565
H         -1.82261        1.22377        1.09701
H          2.13927       -1.15226       -0.28072
