18
2,3-DIMETHYL-2-BUTENE.gamout	Energy:    -235.5103810
C          1.94703        2.20353        2.01162
C          3.20867        2.11943        1.52520
C          4.18865        3.27211        1.49414
C          3.81454        0.86015        0.94521
C          0.96694        1.05095        2.04237
C          1.34126        3.46274        2.59186
H          4.51410        3.47344        0.45706
H          3.79853        4.21034        1.90696
H          5.10399        3.01414        2.05778
H          3.14024       -0.00467        0.93807
H          4.14469        1.03439       -0.09527
H          4.72059        0.57209        1.50929
H          0.64155        0.84918        3.07938
H          0.05157        1.30931        1.47895
H          1.35683        0.11285        1.62904
H          1.00981        3.28784        3.63181
H          2.01609        4.32713        2.60050
H          0.43602        3.75184        2.02700
