9
2,3-DICHLOROPROPENE.gamout	Energy:   -1036.5411175
C         -0.09510        0.00847        0.00001
C          1.10252        0.59077       -0.00002
C          2.46027       -0.05924       -0.00012
Cl         1.26379        2.34479       -0.00009
Cl         2.41404       -1.85740        0.00001
H         -1.01136        0.60075        0.00007
H         -0.16239       -1.08067        0.00006
H          3.02561        0.25512       -0.88998
H          3.02581        0.25525        0.88956
