18
2,3-DIMETHYL-1-BUTENE.gamout	Energy:    -235.5063776
C          2.93237        2.05407        2.49479
C          1.60325        2.37858        1.81683
C          0.78424        3.38843        2.64767
C          1.73259        2.86363        0.36903
C          2.84073        1.22911        3.75727
C          4.12038        2.45955        2.02245
H          1.02676        1.43300        1.80017
H         -0.20006        3.56716        2.18459
H          1.31068        4.35553        2.70981
H          0.60556        3.03707        3.67565
H          2.23378        3.84454        0.31284
H          0.73687        2.98127       -0.08840
H          2.30738        2.15566       -0.24850
H          2.33384        0.26636        3.56453
H          2.25176        1.73982        4.53864
H          3.83565        1.01332        4.17420
H          4.21954        3.04758        1.10757
H          5.04851        2.21244        2.54675
