24
2,3-DIMETHYLNAPHTHALENE.gamout	Energy:    -463.8879633
C          5.82475        3.18440        1.19006
C          7.12015        3.93915        1.01881
C          4.60978        3.82460        1.02851
C          5.84109        1.78555        1.52220
C          3.36672        3.15124        1.18139
C          7.15313        1.06403        1.70906
C          4.64141        1.11392        1.66930
C          3.38324        1.75642        1.50895
C          2.11313        3.80632        1.02208
C          2.14563        1.07019        1.66210
C          0.92956        3.11471        1.18010
C          0.94602        1.73259        1.50104
H          7.73157        3.91208        1.93740
H          7.74283        3.50655        0.21670
H          6.93645        4.99442        0.76901
H          4.59448        4.89016        0.77736
H          6.99310        0.00539        1.96070
H          7.77511        1.10417        0.79820
H          7.75436        1.51455        2.51784
H          4.65069        0.04835        1.92069
H          2.10318        4.87207        0.77452
H          2.16162        0.00414        1.90799
H         -0.02788        3.62856        1.05845
H          0.00116        1.19561        1.62131
