29
2,3-DIMETHYLHEPTANE.gamout	Energy:    -354.4943769
C          2.19340        1.78625        0.17816
C          2.14837        0.31658       -0.27292
C          3.42653       -0.39433        0.20250
C          0.85151       -0.41278        0.18604
C         -0.42213        0.26323       -0.36762
C         -1.75016       -0.23453        0.21667
C         -2.96836        0.53603       -0.30730
C         -4.29522        0.06640        0.29141
C          0.87138       -1.90846       -0.16989
H          3.14985        2.25291       -0.10871
H          1.39209        2.39555       -0.26512
H          2.10534        1.86403        1.27632
H          2.15324        0.30269       -1.38108
H          3.43956       -0.49422        1.30253
H          3.53698       -1.40096       -0.22654
H          4.32069        0.18214       -0.08557
H          0.81578       -0.33218        1.29177
H         -0.37024        1.34855       -0.18481
H         -0.43829        0.14461       -1.46859
H         -1.89470       -1.30773        0.00085
H         -1.71672       -0.15072        1.31988
H         -2.83234        1.61394       -0.10174
H         -3.00672        0.44465       -1.40863
H         -4.47983       -0.99972        0.07447
H         -4.30461        0.18422        1.38851
H         -5.14711        0.63848       -0.11092
H          1.69863       -2.44341        0.31876
H         -0.05757       -2.40895        0.14223
H          0.97526       -2.05396       -1.26006
