24
2,3-DIMETHYL-2-PENTANOL.gamout	Energy:    -351.1126175
C          1.29320        0.08403       -1.52810
C          0.99423        0.17148       -0.02321
C          1.30110        1.58817        0.49517
C         -0.45923       -0.26690        0.33955
C         -1.54602        0.60851       -0.31750
C         -2.95568        0.39764        0.24510
C         -0.69304       -1.76269        0.07389
O          1.83593       -0.74763        0.68374
H          2.34828        0.34631       -1.72058
H          1.12911       -0.93541       -1.90811
H          0.67260        0.77938       -2.11434
H          0.72657        2.36907       -0.02567
H          1.09077        1.65510        1.57391
H          2.37034        1.81647        0.34331
H         -0.52737       -0.11631        1.43347
H         -1.28758        1.67340       -0.19591
H         -1.56044        0.42238       -1.40686
H         -3.32743       -0.62463        0.07191
H         -2.98141        0.57965        1.33314
H         -3.67373        1.08992       -0.22384
H          0.11358       -2.36248        0.51522
H         -1.64658       -2.09701        0.51037
H         -0.73325       -1.98159       -1.00689
H          2.75441       -0.52011        0.48745
