24
2,3-DIMETHYL-TRANS-3-HEXENE.gamout	Energy:    -314.0197356
C          0.82742        0.69764       -0.80714
C          2.18017        0.30495       -0.17749
C          3.18038       -0.12790       -1.25288
C          4.15459        0.69020       -1.69346
C          5.19114        0.44129       -2.75758
C          5.07769        1.41622       -3.94037
C          2.96808       -1.53392       -1.76342
C          2.67388        1.41692        0.75569
H          0.07882        0.91817       -0.02792
H          0.41670       -0.10204       -1.44334
H          0.94037        1.59805       -1.43403
H          1.99449       -0.58706        0.45182
H          4.22210        1.68807       -1.24375
H          5.14373       -0.59394       -3.12988
H          6.19517        0.55624       -2.30596
H          4.11284        1.29991       -4.46075
H          5.88319        1.24952       -4.67432
H          5.14523        2.46451       -3.60321
H          1.92249       -1.69058       -2.07999
H          3.16173       -2.26926       -0.96122
H          3.61302       -1.78986       -2.61437
H          2.77782        2.37993        0.22880
H          3.65005        1.17028        1.20237
H          1.95510        1.57590        1.57635
