27
2,3-DIMETHYL-2-HEPTENE.gamout	Energy:    -353.2760135
C          6.65324        3.69220        1.00952
C          5.38466        3.94128        1.79260
C          4.92327        3.14406        2.78624
C          4.67617        5.20225        1.34843
C          3.62749        3.43661        3.53746
C          5.63799        1.90269        3.27293
C          2.32335        3.05905        2.80434
C          2.17006        1.57421        2.45914
C          0.83775        1.24802        1.78243
H          7.37331        4.51693        1.16471
H          6.44130        3.67354       -0.07506
H          7.16297        2.75499        1.26391
H          4.31198        5.10505        0.30908
H          5.37678        6.05720        1.34662
H          3.81916        5.47387        1.97682
H          3.57474        4.50493        3.80570
H          3.65184        2.89401        4.49913
H          4.96374        1.02884        3.26156
H          5.95330        2.02943        4.32515
H          6.52928        1.64270        2.68909
H          1.47046        3.36864        3.43717
H          2.24059        3.64925        1.87391
H          2.99929        1.26467        1.79880
H          2.27010        0.97238        3.38187
H          0.71780        1.80743        0.83879
H         -0.01763        1.51040        2.42852
H          0.75511        0.17514        1.54359
