14
2,3-DICHLOROBUTANE.gamout	Energy:   -1077.0285976
C          0.50192        1.07431        0.30362
C          2.03228        1.01489        0.33848
C          2.61026       -0.19016        1.06355
Cl         2.73901        1.11325       -1.33964
C         -0.07485        2.30528       -0.37769
Cl        -0.20501       -0.42727       -0.45119
H          0.16668        1.03600        1.35295
H          2.36549        1.94337        0.82995
H          3.70582       -0.11638        1.11918
H          2.21203       -0.23704        2.09147
H          2.34152       -1.12019        0.54347
H         -1.17042        2.31794       -0.28574
H          0.32474        3.21861        0.09507
H          0.19385        2.31948       -1.44322
