16
2,3-BUTANEDIOL.gamout	Energy:    -308.4710969
C         10.02581       16.96258       -0.55480
C         11.49641       16.53835       -0.31032
C         12.33115       17.56566        0.45379
O         11.55780       15.25666        0.29632
C          9.19182       17.10968        0.71727
O          9.96622       18.12907       -1.36102
H          9.58205       16.16064       -1.16842
H         11.94198       16.40778       -1.31091
H         13.37191       17.21697        0.53554
H         12.34232       18.53890       -0.06287
H         11.94864       17.72635        1.47723
H         11.33968       15.35321        1.23318
H          8.14956       17.35037        0.45800
H          9.18615       16.17648        1.30311
H          9.57284       17.91851        1.36548
H         10.18250       18.89273       -0.80895
