22
2,4,6-TRIMETHYL_PHENOL.gamout	Energy:    -424.8437594
C          7.27380        3.05968       -0.91488
C          6.34582        1.89850       -0.64370
C          6.85260        0.65994       -0.21628
C          4.96091        2.01473       -0.80387
C          6.02645       -0.43587        0.04832
C          6.56996       -1.76426        0.50635
C          4.63690       -0.27745       -0.12479
O          3.85656       -1.36727        0.14116
C          4.08851        0.94484       -0.55137
C          2.59466        1.08050       -0.72796
H          8.03387        2.80399       -1.67306
H          6.72306        3.93982       -1.28042
H          7.81935        3.36337       -0.00457
H          7.93313        0.54099       -0.08340
H          4.53674        2.96759       -1.13666
H          6.30242       -2.57039       -0.19750
H          7.66585       -1.73503        0.59783
H          6.14814       -2.05493        1.48332
H          2.92869       -1.14807       -0.00919
H          2.19878        0.37285       -1.48049
H          2.04575        0.90034        0.21536
H          2.32622        2.09157       -1.06685
