20
2,4,6-TRIMETHYLPYRIDINE.gamout	Energy:    -365.7374765
C          1.98616       -0.61216        0.00014
N          2.07655       -1.94779        0.02376
C          3.11889        0.20674       -0.12359
C          0.59964       -0.02901        0.11926
C          5.62764        0.47248       -0.39473
C          4.38971       -0.37295       -0.22940
C          3.28091       -2.52523       -0.07279
C          4.45790       -1.77177       -0.19906
C          3.30704       -4.03341       -0.03537
H          3.00661        1.29454       -0.13526
H          0.13941       -0.32945        1.07504
H          0.60572        1.06943        0.06297
H         -0.04754       -0.42109       -0.68200
H          5.51288        1.45533        0.08760
H          6.51457       -0.02123        0.03155
H          5.83638        0.65440       -1.46379
H          5.42494       -2.27746       -0.27142
H          2.85408       -4.39838        0.90093
H          2.70380       -4.44436       -0.86135
H          4.32853       -4.43402       -0.11203
