29
2,4,4-TRIMETHYLHEXANE.gamout	Energy:    -354.4847075
C          3.13796        2.70531        2.62853
C          4.30307        2.01698        1.85090
C          1.87205        1.96232        3.14126
C          5.19259        1.10091        2.74225
C          3.80173        1.17127        0.66346
C          5.17424        3.15573        1.27072
C          2.12827        0.73649        4.03122
C          0.84166        1.63407        2.04732
C          5.85328        1.73190        3.97151
H          3.59157        3.21405        3.49665
H          2.76840        3.52442        1.98449
H          1.38423        2.71310        3.79205
H          5.98845        0.69337        2.09171
H          4.60337        0.22818        3.06374
H          3.12164        1.74727        0.01519
H          4.65319        0.84264        0.04388
H          3.26976        0.26511        0.99203
H          4.60963        3.73316        0.52015
H          6.07481        2.75383        0.77656
H          5.50607        3.86394        2.04688
H          1.19123        0.41395        4.51546
H          2.50474       -0.12442        3.45589
H          2.85566        0.95229        4.83012
H         -0.11560        1.32549        2.50040
H          1.17067        0.81324        1.39301
H          0.63821        2.51008        1.40931
H          6.50250        2.58161        3.70601
H          6.48481        0.99026        4.48775
H          5.11751        2.09503        4.70690
