13
2,4,6-TRICHLOROPHENOL.gamout	Energy:   -1685.2727774
Cl         1.29862       -2.67693       -0.00009
Cl         1.25242        2.73739        0.00020
Cl        -3.44448       -0.02761       -0.00020
O          2.46557        0.01763        0.00010
C          1.12337        0.03251        0.00001
C          0.40802       -1.18197       -0.00002
C          0.36773        1.22117        0.00009
C         -0.98743       -1.20456       -0.00011
C         -1.02681        1.22385       -0.00000
C         -1.69724       -0.00061       -0.00010
H         -1.51192       -2.15986       -0.00021
H         -1.57605        2.16508        0.00001
H          2.78336        0.93610        0.00019
