24
2,4,4-TRIMETHYL-1-PENTENE.gamout	Energy:    -314.0167202
C          3.12444        1.00984        2.86062
C          1.81881        1.81462        3.16867
C          4.19355        1.67889        2.01268
C          2.12548        3.17074        3.83091
C          0.97195        0.96471        4.13650
C          1.01590        2.05483        1.87694
C          5.29124        2.41821        2.74176
C          4.20023        1.57121        0.67493
H          3.57343        0.71744        3.82683
H          2.81466        0.07299        2.36712
H          1.19013        3.67971        4.11796
H          2.66888        3.84245        3.14779
H          2.73037        3.04864        4.74536
H          1.49936        0.79909        5.09100
H          0.01478        1.46290        4.36402
H          0.74095       -0.02330        3.70431
H          1.59261        2.64292        1.14644
H          0.08545        2.60512        2.09571
H          0.73560        1.10202        1.39673
H          4.89315        3.20927        3.39774
H          5.85331        1.72624        3.39511
H          6.00478        2.87914        2.04209
H          4.97448        2.04709        0.06472
H          3.43725        0.99701        0.14043
