32
2,4,5-TRIMETHYLHEPTANE.gamout	Energy:    -393.7459293
C         -0.43769       18.07653       -0.29202
C          0.97292       18.54175        0.08041
C          1.26534       20.05803        0.01884
C          0.47170       20.96759        1.01358
C          2.77885       20.28513        0.18053
C         -0.91255       21.38120        0.46754
C          0.39105       20.38374        2.43223
C         -1.68472       22.46113        1.25480
C         -0.92560       23.79219        1.34362
C         -3.07086       22.67428        0.62992
H         -0.47332       16.97759       -0.37464
H         -1.19271       18.36709        0.45477
H         -0.75824       18.49018       -1.26329
H          1.68462       18.05057       -0.60702
H          1.23115       18.16039        1.08480
H          0.99751       20.39704       -1.00020
H          1.06607       21.89598        1.08338
H          3.04348       21.34550        0.03764
H          3.35393       19.69587       -0.55249
H          3.12804       19.98735        1.18409
H         -0.77999       21.74800       -0.56813
H         -1.55840       20.49094        0.39045
H          0.02888       21.13109        3.15561
H          1.37645       20.04431        2.79013
H         -0.29579       19.52257        2.48137
H         -1.84299       22.09323        2.28569
H         -1.51828       24.55159        1.88025
H          0.03508       23.69433        1.87355
H         -0.71080       24.19099        0.33622
H         -3.66223       23.40979        1.20013
H         -3.64847       21.73576        0.59368
H         -2.98261       23.04964       -0.40486
