32
2,4,4-TRIMETHYLHEPTANE.gamout	Energy:    -393.7456964
C         -2.55175       -0.67391       -2.40530
C         -1.03354       -0.75772       -2.22746
C         -0.44875        0.47787       -1.52939
C          1.06844        0.47468       -1.21448
C          1.87802        0.23322       -2.50409
C          1.44991        1.86864       -0.68141
C          1.47634       -0.61395       -0.18222
C          0.83829       -0.58598        1.23172
C         -0.38232       -1.50673        1.35360
C          1.87165       -0.95920        2.30449
H         -2.94526       -1.56094       -2.92690
H         -3.06983       -0.60270       -1.43334
H         -2.84062        0.21346       -2.99449
H         -0.56239       -0.88284       -3.21705
H         -0.78763       -1.66963       -1.65646
H         -1.00263        0.65393       -0.59036
H         -0.65739        1.36122       -2.16095
H          2.95773        0.35489       -2.31770
H          1.72821       -0.78068       -2.90668
H          1.59450        0.95171       -3.29130
H          2.51538        1.90674       -0.40201
H          0.85899        2.15120        0.20369
H          1.27727        2.64060       -1.44912
H          1.30611       -1.60986       -0.62796
H          2.57071       -0.53191       -0.06891
H          0.50374        0.44429        1.44942
H         -0.81841       -1.45277        2.36419
H         -1.17646       -1.24784        0.63883
H         -0.10106       -2.55881        1.17038
H          1.42580       -0.94716        3.31263
H          2.72378       -0.26075        2.30586
H          2.27514       -1.97337        2.13349
