15
2,4-DIMETHYLTHIOPHENE.gamout	Energy:    -631.1426645
C         -4.98245       -0.72502       -1.27964
C         -5.19478       -1.87637       -2.22478
C         -3.69209       -0.17235       -0.96837
C         -5.98213       -0.06775       -0.60601
C         -3.72382        0.87520       -0.08167
S         -5.36951        1.20890        0.39691
C         -2.57861        1.67920        0.45798
H         -4.81947       -1.64066       -3.23551
H         -4.65943       -2.77969       -1.88504
H         -6.26115       -2.13238       -2.31404
H         -2.75983       -0.54877       -1.39762
H         -7.05340       -0.26481       -0.64385
H         -1.63047        1.31144        0.03739
H         -2.66834        2.74856        0.20148
H         -2.50808        1.61131        1.55695
