32
2,4-DIMETHYL-3-ISOPROPYLPENTANE.gamout	Energy:    -393.7368484
C          0.64868       28.80106       -0.54674
C          1.47766       29.82349        0.24810
C          1.06474       31.32504        0.09972
C          1.50679       29.41018        1.73031
C          1.75933       32.07832       -1.08242
C         -0.47074       31.59629        0.22878
C          3.19199       32.48914       -0.70000
C          1.78575       31.35404       -2.43887
C         -0.73043       32.95490        0.90187
C         -1.29410       31.50627       -1.06740
H          0.62672       29.01089       -1.62525
H          1.07266       27.79102       -0.41893
H         -0.39400       28.75660       -0.19102
H          2.51797       29.74824       -0.11768
H          1.49051       31.80282        0.99864
H          2.18911       30.04689        2.31702
H          1.84177       28.36601        1.84613
H          0.50542       29.48431        2.18801
H          1.19541       33.01748       -1.22760
H         -0.86903       30.82722        0.91553
H          3.67237       33.06147       -1.51113
H          3.20637       33.11716        0.20581
H          3.82796       31.60861       -0.50275
H          2.23553       32.00715       -3.20537
H          0.78552       31.07306       -2.79686
H          2.39951       30.43919       -2.39888
H         -1.81061       33.13350        1.03426
H         -0.25802       33.01522        1.89621
H         -0.33530       33.78880        0.29610
H         -2.36567       31.64083       -0.84334
H         -1.18691       30.53822       -1.57591
H         -1.01706       32.29681       -1.78416
