19
2,4-XYLENOL.gamout	Energy:    -385.5844545
C          3.33420        5.40199        0.67850
C          3.32682        3.90083        0.80479
C          4.54907        3.20603        0.93177
C          2.14639        3.15268        0.80187
O          5.69088        3.95246        0.93310
C          4.55909        1.81370        1.04950
C          2.12856        1.75048        0.91891
C          3.35836        1.09516        1.04279
C          0.82137        0.99272        0.90688
H          2.31196        5.79802        0.58755
H          3.81239        5.87499        1.55284
H          3.91219        5.72575       -0.20339
H          1.19636        3.68909        0.70372
H          6.45473        3.36827        1.02613
H          5.51370        1.28529        1.14804
H          3.38750        0.00556        1.13634
H          0.27759        1.13726       -0.04271
H          0.98215       -0.08842        1.03609
H          0.15053        1.32972        1.71562
