19
2,4-DINITROTOLUENE.gamout	Energy:    -679.7101098
O          6.88097        4.08370       -0.94884
N          7.28375        2.93125       -0.95033
O          8.43903        2.59903       -1.15029
C          6.30145        1.85235       -0.67781
C          6.84704        0.61513       -0.33321
C          4.90764        2.07296       -0.76586
C          5.98430       -0.43547       -0.05274
C          4.26022        3.37861       -1.14707
C          4.08636        0.96308       -0.48366
N          6.55048       -1.74914        0.32599
C          4.59993       -0.27992       -0.12411
O          5.76082       -2.65059        0.55316
O          7.76409       -1.84160        0.38534
H          7.92585        0.48074       -0.28777
H          3.17909        3.23428       -1.28311
H          4.42431        4.14309       -0.37314
H          4.68757        3.78979       -2.07261
H          3.00349        1.09012       -0.55081
H          3.95305       -1.12871        0.09784
