24
2,4-DIMETHYL-1-HEXENE.gamout	Energy:    -314.0165404
C         -0.25480       19.13226       -0.15275
C          1.03376       19.79665        0.34020
C          1.21727       21.28755       -0.02195
C          0.41166       22.25682        0.88114
C          2.70428       21.66866        0.03721
C         -1.10138       22.22471        0.80213
C         -1.85726       21.97268        1.88167
C         -1.71546       22.55873       -0.53528
H         -0.26378       18.05956        0.10218
H         -1.15280       19.58505        0.29208
H         -0.34622       19.20767       -1.25011
H          1.89022       19.23674       -0.07621
H          1.11251       19.68563        1.43826
H          0.88452       21.42704       -1.06824
H          0.72361       22.09348        1.92755
H          0.72938       23.28522        0.62184
H          2.86507       22.72327       -0.24125
H          3.30570       21.04593       -0.64483
H          3.10944       21.53074        1.05518
H         -2.95053       21.98803        1.83213
H         -1.40751       21.74440        2.85287
H         -1.35126       23.53601       -0.89941
H         -1.43998       21.81655       -1.30407
H         -2.81379       22.59794       -0.48355
