15
2,4-DICHLOROTOLUENE.gamout	Energy:   -1189.9982062
Cl         7.33861        3.26575       -0.82038
C          6.30625        1.86952       -0.57770
C          6.88718        0.60921       -0.34129
C          4.92298        2.05925       -0.62798
C          8.37985        0.41858       -0.28995
C          6.00309       -0.46538       -0.15499
C          4.08389        0.95919       -0.43671
C          4.61620       -0.30986       -0.19908
Cl         2.35051        1.18151       -0.49639
H          4.50955        3.05065       -0.81321
H          8.85512        0.72234       -1.23735
H          8.83486        1.03613        0.50201
H          8.63575       -0.63337       -0.09748
H          6.41837       -1.45984        0.03106
H          3.95151       -1.16239       -0.05095
