29
2,4-DIMETHYLHEPTANE.gamout	Energy:    -354.4922105
C          4.37425        2.75168        3.08076
C          3.01094        3.47851        2.97456
C          5.35609        2.82203        1.88354
C          2.07926        2.91278        1.88156
C          3.12289        5.00502        2.83806
C          6.25974        4.06522        1.91414
C          6.22160        1.55267        1.82751
C          1.67635        1.44179        2.03774
C          0.70468        0.96577        0.95495
H          4.16200        1.68886        3.28515
H          4.89644        3.11844        3.98433
H          2.50957        3.28447        3.94244
H          4.76569        2.85573        0.94898
H          1.15860        3.52559        1.87266
H          2.53597        3.06091        0.88477
H          3.48897        5.30239        1.84139
H          2.13713        5.47986        2.97411
H          3.80607        5.43246        3.59001
H          5.68902        5.00454        1.90595
H          6.93787        4.08172        1.04444
H          6.88727        4.06545        2.82282
H          6.93131        1.58591        0.98420
H          5.60493        0.64607        1.71265
H          6.81228        1.43821        2.75359
H          2.57377        0.79912        2.02520
H          1.21593        1.29612        3.03265
H          0.42913       -0.09217        1.09514
H         -0.22702        1.55683        0.96361
H          1.14624        1.06331       -0.05151
