20
2,4-DIMETHYLANILINE.gamout	Energy:    -365.7357511
C          7.27992        3.01576       -1.06906
C          6.36780        1.86336       -0.72068
C          6.87097        0.62862       -0.29126
C          4.97146        1.99592       -0.79699
C          6.01744       -0.42383        0.04378
C          4.62210       -0.27873       -0.03437
N          3.77162       -1.31317        0.35775
C          4.08882        0.96387       -0.46320
C          2.59480        1.15102       -0.54188
H          8.32228        2.68217       -1.18928
H          6.97523        3.50880       -2.00740
H          7.27426        3.79382       -0.28432
H          7.95288        0.47998       -0.21986
H          4.54715        2.94966       -1.12982
H          6.43751       -1.37992        0.37213
H          2.87228       -1.35483       -0.10904
H          4.20543       -2.22782        0.42242
H          2.13099        0.47764       -1.28823
H          2.11009        0.92865        0.42558
H          2.33116        2.18034       -0.82507
