21
2,4-DIMETHYL-1-PENTENE.gamout	Energy:    -274.7623614
C          3.30925        1.78614        1.00985
C          2.00595        1.90544        1.83873
C          4.42093        2.74916        1.39874
C          0.94273        0.94125        1.29778
C          2.23247        1.68839        3.33967
C          5.55833        2.18350        2.21233
C          4.38988        4.03675        1.02504
H          3.67816        0.74683        1.08509
H          3.04986        1.94568       -0.05085
H          1.63205        2.93754        1.70332
H          0.74592        1.11273        0.22649
H         -0.01261        1.05456        1.83641
H          1.26568       -0.10841        1.41277
H          1.28617        1.77700        3.89869
H          2.64136        0.68202        3.53924
H          2.93248        2.42870        3.75768
H          6.29377        2.95481        2.48757
H          6.08494        1.39521        1.64453
H          5.19444        1.70694        3.13897
H          3.57494        4.43636        0.41252
H          5.17784        4.73831        1.31561
