29
2,4-DIMETHYL-3-ETHYLPENTANE.gamout	Energy:    -354.4857613
C          4.55792        0.98956        2.50046
C          3.46844        2.02502        2.07593
C          2.17181        1.89649        2.95327
C          4.02733        3.45898        1.93360
C          5.64657        0.80577        1.43246
C          5.19059        1.25202        3.87535
C          2.05448        2.90517        4.10776
C          0.89086        1.90631        2.10273
C          3.17530        4.42114        1.09878
H          4.02576        0.02218        2.57048
H          3.17567        1.71165        1.05629
H          2.22039        0.89524        3.41973
H          5.02120        3.39546        1.46042
H          4.20706        3.90199        2.92734
H          6.29258       -0.05360        1.67799
H          5.21075        0.61965        0.43655
H          6.30497        1.68650        1.34791
H          5.72948        2.21393        3.90140
H          5.92153        0.46411        4.12227
H          4.44145        1.26382        4.68186
H          1.18978        2.65602        4.74539
H          1.90169        3.93477        3.74593
H          2.94638        2.90882        4.75201
H         -0.00083        1.73035        2.72810
H          0.91361        1.12125        1.32882
H          0.74610        2.87105        1.58983
H          3.68829        5.38827        0.96782
H          2.97918        4.01268        0.09269
H          2.19878        4.63201        1.56162
