21
2,4-DIMETHYL-2-PENTENE.gamout	Energy:    -274.7674734
C          3.23849        2.43600        1.45545
C          1.88039        1.85154        1.76219
C          4.46105        1.92182        1.68421
C          1.08231        1.63503        0.46305
C          1.10420        2.76035        2.73293
C          4.72885        0.58614        2.33301
C          5.70459        2.68160        1.28684
H          3.19648        3.42394        0.97395
H          2.00322        0.86950        2.24900
H          0.93895        2.58958       -0.07270
H          0.08302        1.21713        0.67191
H          1.60484        0.94582       -0.21935
H          0.95691        3.76518        2.30004
H          0.10689        2.34509        2.95583
H          1.64313        2.88458        3.68576
H          5.30768       -0.06718        1.65510
H          3.81617        0.04665        2.62028
H          5.34633        0.71133        3.24117
H          6.34964        2.87893        2.16272
H          6.31737        2.09563        0.57745
H          5.46507        3.64650        0.81519
