22
2,4-DIMETHYL-3-PENTANONE.gamout	Energy:    -349.9106083
C          1.26870        0.11013       -0.05756
C          0.38624        0.15454        1.20842
C         -0.09067        1.46170        1.87193
O          0.07117       -0.90144        1.71875
C          0.99503        1.15805       -1.14431
C          2.75592        0.08278        0.35230
C          1.00748        2.50625        2.12208
C         -1.30414        2.06259        1.13432
H          1.03765       -0.88415       -0.47454
H         -0.45513        1.10709        2.84979
H          1.24456        2.18050       -0.82136
H         -0.05683        1.14967       -1.46920
H          1.61375        0.93848       -2.02983
H          3.09066        1.04923        0.76142
H          3.38535       -0.14186       -0.52437
H          2.94126       -0.69517        1.10895
H          1.41002        2.92868        1.18865
H          1.84752        2.08678        2.69789
H          0.59530        3.34547        2.70639
H         -1.02177        2.55328        0.19072
H         -1.78791        2.82283        1.76937
H         -2.05672        1.29018        0.90881
