32
2,4-DIMETHYL-3-ETHYLHEXANE.gamout	Energy:    -393.7373888
C          0.10733       20.22962       -1.01159
C          1.35537       20.86245       -0.39240
C          1.24690       22.33021        0.09052
C          0.42256       22.61285        1.40654
C          2.66588       22.90655        0.24569
C         -0.90223       23.40405        1.18437
C          0.25875       21.37610        2.31752
C         -0.64658       24.80113        0.59634
C         -1.97902       22.66972        0.37546
C         -0.28068       21.66724        3.72123
H          0.33365       19.21920       -1.39082
H         -0.72194       20.13127       -0.29575
H         -0.26487       20.82233       -1.86449
H          2.15281       20.83875       -1.15630
H          1.72572       20.22247        0.42631
H          0.76507       22.88762       -0.73223
H          1.04623       23.31038        1.99570
H          2.64214       23.98019        0.49293
H          3.26007       22.79006       -0.67614
H          3.21221       22.39287        1.05668
H         -1.32070       23.57195        2.19246
H         -0.38062       20.61732        1.83625
H          1.24907       20.90242        2.42594
H         -1.57782       25.39072        0.56836
H          0.08606       25.36552        1.19708
H         -0.26379       24.75282       -0.43691
H         -2.90915       23.26142        0.34827
H         -2.23097       21.68817        0.80754
H         -1.66757       22.50574       -0.66859
H         -0.24009       20.76328        4.35072
H          0.31236       22.44846        4.22774
H         -1.32930       22.00520        3.71119
