24
2,4-DIMETHYL-TRANS-3-HEXENE.gamout	Energy:    -314.0220560
C          0.78483       18.94753       -0.75171
C          0.80225       19.78530        0.53648
C          0.57279       21.27133        0.32702
C          1.56603       22.14893        0.56489
C         -0.80875       21.65284       -0.14859
C          1.57186       23.65235        0.42227
C          1.84773       24.32488        1.77952
C          2.60951       24.09203       -0.62710
H          0.97703       17.88464       -0.53133
H         -0.18566       19.00166       -1.27154
H          1.55975       19.29173       -1.45640
H          1.76906       19.63823        1.04569
H          0.02635       19.39499        1.22309
H          2.52290       21.73465        0.91529
H         -1.57867       21.24482        0.53079
H         -0.95941       22.73879       -0.21289
H         -1.02116       21.23040       -1.14647
H          0.58187       23.99276        0.07615
H          1.85907       25.42386        1.68491
H          1.08221       24.05435        2.52430
H          2.82810       24.01627        2.18288
H          2.62577       25.18966       -0.73518
H          2.39047       23.65475       -1.61442
H          3.62521       23.77056       -0.33817
