15
2,4-DICHLOROBENZOTRIFLUORIDE.gamout	Energy:   -1487.3971208
C          7.24636        3.04162       -0.95244
F          7.88636        2.89553       -2.12299
F          8.17721        3.21557       -0.00155
F          6.53950        4.18397       -1.02837
C          6.34489        1.86138       -0.64772
C          6.84860        0.55377       -0.51138
C          4.96756        2.06369       -0.49330
Cl         8.54772        0.20498       -0.68561
C          5.99501       -0.51540       -0.22774
C          4.10153        1.00802       -0.21030
C          4.62582       -0.28022       -0.07874
Cl         3.56599       -1.61692        0.27698
H          4.56699        3.07302       -0.59627
H          6.40104       -1.52164       -0.12452
H          3.03085        1.17975       -0.09178
