24
2,4-DIMETHYL-2-HEXENE.gamout	Energy:    -314.0234087
C         -0.25250       18.47942       -0.33683
C          1.20039       18.82559       -0.01092
C          1.47943       20.33618        0.16397
C          0.74726       20.89693        1.35972
C          2.99187       20.59170        0.30138
C         -0.17418       21.87678        1.41663
C         -0.77328       22.29980        2.73686
C         -0.69341       22.64347        0.22479
H         -0.39078       17.39069       -0.43933
H         -0.93777       18.83323        0.45043
H         -0.57394       18.94372       -1.28523
H          1.85784       18.44071       -0.81128
H          1.50758       18.30085        0.91362
H          1.13455       20.84540       -0.75260
H          1.03422       20.42851        2.31274
H          3.20966       21.66842        0.38304
H          3.54491       20.19576       -0.56698
H          3.39526       20.10167        1.20459
H         -0.37126       21.71750        3.57970
H         -0.57898       23.36963        2.93688
H         -1.87232       22.18092        2.73208
H         -0.25230       22.32243       -0.72829
H         -1.79033       22.53764        0.14283
H         -0.49597       23.72445        0.34231
