32
2,5,5-TRIMETHYLHEPTANE.gamout	Energy:    -393.7495650
C          4.24604        3.01988        2.51276
C          2.83780        3.19874        1.87805
C          5.28214        2.18488        1.74469
C          2.02615        4.09868        2.84867
C          2.95912        3.87842        0.50500
C          2.14226        1.83756        1.71992
C          6.61918        1.97273        2.48375
C          0.58406        4.44183        2.46253
C          7.49894        0.96409        1.73610
C          7.38029        3.28404        2.70504
H          4.11328        2.57050        3.51454
H          4.65525        4.02986        2.68908
H          5.49862        2.65363        0.76705
H          4.85811        1.19145        1.51931
H          2.58706        5.04048        2.98703
H          2.01894        3.60706        3.83822
H          1.97185        4.04906        0.04895
H          3.53673        3.26290       -0.20175
H          3.46272        4.85606        0.58833
H          2.03851        1.32818        2.69239
H          1.13484        1.94796        1.29034
H          2.70461        1.16971        1.04948
H          6.38898        1.54187        3.47822
H         -0.04834        3.54504        2.36491
H          0.52531        4.99574        1.51185
H          0.12585        5.07811        3.23614
H          7.76117        1.33240        0.72835
H          6.98951       -0.00532        1.61117
H          8.44162        0.78038        2.27630
H          6.80790        4.00055        3.31381
H          7.61149        3.77259        1.74167
H          8.33696        3.10590        3.22224
