16
2,5-DIMETHYLPYRROLE.gamout	Energy:    -288.4128643
C         -0.32164       -1.55522        0.12488
N         -1.17665       -0.69991       -0.54078
C         -1.11262       -2.39495        0.88837
C          1.16313       -1.48091       -0.03883
C         -2.47625       -2.02812        0.67039
C         -2.49208       -0.97142       -0.22222
C         -3.62762       -0.19114       -0.80406
H         -0.87901        0.02905       -1.17655
H         -0.74447       -3.19008        1.53559
H          1.64755       -2.25073        0.57914
H          1.47849       -1.65030       -1.08467
H          1.57123       -0.50205        0.27262
H         -3.35700       -2.48702        1.11790
H         -4.58298       -0.57313       -0.41605
H         -3.57294        0.88290       -0.54855
H         -3.66574       -0.26471       -1.90640
