29
2,5-DIMETHYLHEPTANE.gamout	Energy:    -354.4971197
C          4.05236        2.19979        2.68737
C          3.31768        2.07384        4.03775
C          1.80937        2.33502        3.84635
C          3.92971        2.97898        5.11655
C          5.51524        1.73965        2.68837
C          0.93648        2.10137        5.08214
C          6.20062        1.71176        1.30735
C          7.56774        1.02038        1.40173
C          6.33895        3.10802        0.68433
H          3.50067        1.60589        1.93508
H          3.98371        3.24968        2.34790
H          3.42597        1.02394        4.37660
H          1.66936        3.37039        3.48172
H          1.44912        1.68265        3.03059
H          3.83145        4.04324        4.83693
H          3.43987        2.84325        6.09305
H          5.00134        2.77320        5.26247
H          6.11704        2.37885        3.36046
H          5.56329        0.72268        3.12053
H          1.08594        1.08726        5.49118
H          1.15272        2.81925        5.88944
H         -0.13282        2.20362        4.83522
H          5.56414        1.10470        0.63413
H          7.47143       -0.00823        1.78678
H          8.24171        1.56859        2.08331
H          8.06325        0.96486        0.41825
H          6.94627        3.76820        1.32874
H          5.36330        3.59580        0.53272
H          6.83695        3.05416       -0.29772
