22
2,5-DIMETHYL-1,5-HEXADIENE.gamout	Energy:    -312.7969759
C          3.32379        2.19437        1.63086
C          4.59503        1.69182        2.33282
C          2.04254        1.43357        1.90481
C          5.83758        2.49087        1.99364
C          0.83429        1.95795        1.16718
C          1.95901        0.37873        2.72829
C          5.91307        3.89650        2.53847
C          6.82475        1.96755        1.25212
H          3.14464        3.25524        1.88981
H          3.49884        2.19659        0.53783
H          4.43365        1.72119        3.42642
H          4.76015        0.63602        2.06413
H          0.63832        3.01406        1.42631
H          0.99473        1.92969        0.07447
H         -0.07142        1.37655        1.39517
H          1.00602       -0.13370        2.89019
H          2.82225       -0.01522        3.26924
H          5.82563        3.89449        3.63985
H          6.86044        4.38778        2.27097
H          5.08830        4.52616        2.16126
H          7.72231        2.54273        1.00440
H          6.77080        0.94391        0.86843
