19
2,5-XYLENOL.gamout	Energy:    -385.5851491
C         -1.63361        0.27412       -0.15605
C         -0.28932        0.65763       -0.06987
C         -2.01564       -1.06951       -0.03243
C         -1.00963       -2.02327        0.18082
C          0.72494       -0.29621        0.14441
C          0.33025       -1.63406        0.26605
C          2.16311        0.14219        0.23296
H          2.31416        0.86170        1.05542
H          2.82953       -0.71723        0.40051
H          2.48466        0.65369       -0.69000
C         -3.46631       -1.47934       -0.12600
H         -3.62952       -2.18994       -0.95398
H         -4.12455       -0.61326       -0.29372
H         -3.80164       -1.98062        0.79788
O          0.10050        1.95902       -0.18867
H         -0.67662        2.51527       -0.33205
H         -2.39688        1.04268       -0.32350
H         -1.27433       -3.07968        0.28153
H          1.10063       -2.39312        0.43286
