26
2,5-DIMETHYLHEXANE.gamout	Energy:    -315.2425185
C          3.37244        2.29207        1.39538
C          4.67835        1.49264        1.47699
C          2.09352        1.44867        1.22110
C          5.96906        2.33650        1.47241
C          1.83296        0.52004        2.41574
C          0.88055        2.35272        0.96487
C          6.08892        3.24674        2.70243
C          7.20373        1.43492        1.34109
H          3.25457        2.92304        2.29580
H          3.44480        2.99599        0.54536
H          4.68087        0.85472        2.38006
H          4.71855        0.79829        0.61690
H          2.23515        0.81176        0.32609
H          5.93287        2.98599        0.57575
H          1.70545        1.10251        3.34554
H          0.91456       -0.07158        2.26656
H          2.65826       -0.19072        2.57767
H          1.03410        2.99818        0.08413
H         -0.03418        1.76159        0.79272
H          0.69113        3.01275        1.82966
H          6.09760        2.65245        3.63350
H          7.02458        3.82943        2.67410
H          5.25735        3.96555        2.77399
H          8.13383        2.02626        1.31068
H          7.28050        0.74043        2.19633
H          7.16353        0.82608        0.42260
