32
2,5-DIMETHYL-3-ETHYLHEXANE.gamout	Energy:    -393.7457314
C          0.72205       19.85303        1.11639
C          1.64038       20.71338        0.23850
C          0.84493       21.87146       -0.40403
C          2.84274       21.21140        1.05230
C          1.54275       22.64521       -1.55536
C          1.10386       22.18723       -2.98040
C          1.39136       24.17497       -1.39712
C          1.40216       20.70662       -3.25543
C         -0.35998       22.51031       -3.31764
C          2.21800       24.78373       -0.26232
H         -0.11068       19.42204        0.53560
H          1.27140       19.01771        1.58178
H          0.27959       20.45216        1.93217
H          2.02797       20.06901       -0.57110
H         -0.11841       21.47372       -0.76670
H          0.57458       22.57249        0.40671
H          3.53685       21.81628        0.44737
H          3.41774       20.36666        1.46678
H          2.51326       21.83559        1.90182
H          2.62735       22.43504       -1.49886
H          1.72974       22.77169       -3.68163
H          1.68453       24.66141       -2.34514
H          0.32622       24.42597       -1.24477
H          1.19568       20.45880       -4.30977
H          2.45800       20.45986       -3.05541
H          0.77855       20.03831       -2.63821
H         -0.59269       22.21784       -4.35499
H         -0.58163       23.58458       -3.22371
H         -1.06229       21.96525       -2.66454
H          2.06444       25.87348       -0.19844
H          1.95278       24.35858        0.71951
H          3.29705       24.60962       -0.41373
