24
2,5-DIMETHYL-2-HEXENE.gamout	Energy:    -314.0232768
C          1.95281        2.27270        2.79674
C          3.11248        2.37002        3.75289
C          2.01798        1.09047        1.79618
C          3.14697        2.02136        5.05361
C          3.27270        1.13915        0.91541
C          0.74750        1.04651        0.93813
C          4.40776        2.18304        5.86831
C          1.97831        1.45378        5.82152
H          1.89765        3.20980        2.20952
H          1.00222        2.20571        3.35015
H          4.04273        2.76692        3.32691
H          2.05995        0.16020        2.39386
H          4.19692        1.09741        1.51268
H          3.29966        2.06771        0.31760
H          3.29591        0.29162        0.21027
H          0.75706        0.18500        0.24991
H          0.65261        1.95998        0.32506
H         -0.16013        0.96803        1.55946
H          4.23830        2.85043        6.73325
H          5.23523        2.59897        5.27393
H          4.73870        1.21434        6.28563
H          1.74166        2.08791        6.69507
H          1.06590        1.35342        5.21828
H          2.22717        0.45508        6.22362
