24
2,5-DIMETHYL-TRANS-3-HEXENE.gamout	Energy:    -314.0219812
C          3.39505        3.72146        2.25337
C          2.99006        2.46045        2.05996
C          4.79380        4.24533        2.03401
C          1.59133        1.93659        2.27937
C          5.39281        4.78021        3.34660
C          4.80981        5.33012        0.94229
C          1.57536        0.85166        3.37096
C          0.99221        1.40185        0.96676
H          2.66117        4.46332        2.60396
H          3.72394        1.71858        1.70938
H          5.42196        3.40338        1.68970
H          0.96319        2.77851        2.62380
H          4.79085        5.61568        3.74515
H          5.42850        3.99651        4.12004
H          6.41871        5.15491        3.19258
H          5.83214        5.70694        0.77130
H          4.42381        4.94254       -0.01393
H          4.18193        6.19062        1.23245
H          1.96175        1.23902        4.32710
H          0.55297        0.47511        3.54222
H          2.20292       -0.00897        3.08049
H          1.59425        0.56656        0.56798
H          0.95630        2.18568        0.19345
H         -0.03360        1.02691        1.12085
