24
2,5-DIMETHYL-CIS-3-HEXENE.gamout	Energy:    -314.0136507
C          4.34074        3.16390        2.36851
C          5.20233        1.90588        2.39994
C          3.02806        3.29863        2.12137
C          5.29317        1.20449        1.03137
C          4.80089        0.92373        3.51706
C          1.98750        2.25185        1.79463
C          1.38329        2.51323        0.40283
C          0.88767        2.23242        2.87185
H          4.88368        4.09369        2.58022
H          6.22448        2.24662        2.64171
H          2.62409        4.32126        2.15503
H          6.01755        0.37314        1.06480
H          4.32253        0.78603        0.72086
H          5.61887        1.90465        0.24549
H          5.51829        0.08781        3.57367
H          4.78331        1.42241        4.49920
H          3.80153        0.49314        3.34525
H          2.46003        1.25704        1.77575
H          0.90475        3.50712        0.36121
H          2.15520        2.48243       -0.38254
H          0.61376        1.76274        0.15606
H          0.11469        1.48189        2.63600
H          1.30099        1.99699        3.86544
H          0.38845        3.21441        2.94207
