15
2,5-DIMETHYLTHIOPHENE.gamout	Energy:    -631.1431336
C         -3.70825        0.86382       -0.09947
C         -2.58415        1.71872        0.40373
S         -5.33882        1.06279        0.50185
C         -3.67242       -0.13887       -1.03570
C         -5.96053       -0.21402       -0.51994
C         -4.94562       -0.74817       -1.27343
C         -7.41163       -0.58997       -0.49620
H         -1.64629        1.43487       -0.09762
H         -2.75878        2.79059        0.20785
H         -2.43155        1.60575        1.49077
H         -2.75305       -0.43588       -1.54552
H         -5.10478       -1.56177       -1.98490
H         -7.59674       -1.41001       -1.20663
H         -7.73468       -0.93119        0.50232
H         -8.06368        0.25387       -0.77994
