32
2,5-DIMETHYLOCTANE.gamout	Energy:    -393.7515255
C          3.49917        2.90424        2.68491
C          1.97541        2.96648        2.45248
C          1.34309        4.21354        3.10677
C          1.27879        1.69804        2.96535
C          4.25561        1.89018        1.81448
C          1.68060        5.57685        2.48224
C          5.77935        1.83752        2.03875
C          1.08889        5.80196        1.08892
C          6.46955        1.04376        0.92284
C          6.14326        1.25675        3.41007
H          3.67333        2.69060        3.75576
H          3.93695        3.90154        2.50560
H          1.79857        3.02224        1.36115
H          0.24462        4.09159        3.09798
H          1.63057        4.22784        4.17470
H          1.68703        0.78559        2.50431
H          1.39734        1.60006        4.05903
H          0.19811        1.72058        2.75106
H          4.06466        2.12764        0.75197
H          3.84855        0.87344        1.96884
H          1.30792        6.36620        3.15829
H          2.77569        5.71812        2.44522
H          6.16452        2.87534        1.99732
H          1.45319        5.06259        0.35674
H         -0.01239        5.73268        1.10686
H          1.35157        6.79944        0.70147
H          6.26614        1.47875       -0.06918
H          6.11775       -0.00308        0.90390
H          7.56230        1.02277        1.06307
H          5.79032        0.21409        3.49924
H          7.23442        1.25185        3.56270
H          5.69840        1.83187        4.23658
