11
2,5-DIHYDROFURAN.gamout	Energy:    -230.9069393
C          2.40598        0.87565        0.89922
C          1.07140        0.89216        0.89520
C          2.92551        2.28847        0.90390
C          0.58708        2.31739        0.89690
O          1.76619        3.10967        0.90179
H          3.04841       -0.00754        0.89929
H          0.40738        0.02512        0.89137
H          3.54795        2.50384        1.79799
H          3.55374        2.50773        0.01484
H         -0.03052        2.55171        0.00418
H         -0.03531        2.54793        1.78728
