22
2,5-DIMETHYL-2,4-HEXADIENE.gamout	Energy:    -312.8132531
C          2.95566        2.13473        1.83293
C          3.73823        3.28417        1.40467
C          1.64011        1.90298        1.60069
C          5.05385        3.51578        1.63663
C          0.72649        2.82400        0.83342
C          0.97571        0.65185        2.11788
C          5.96763        2.59442        2.40331
C          5.71820        4.76697        1.11957
H          3.48781        1.36940        2.40760
H          3.20598        4.04974        0.83040
H         -0.12978        3.13094        1.46111
H          0.29654        2.30391       -0.04223
H          1.22150        3.73500        0.47196
H          0.54356        0.05934        1.29002
H          0.13494        0.89615        2.79343
H          1.67802        0.00707        2.66766
H          6.82355        2.28747        1.77513
H          5.47265        1.68339        2.76471
H          6.39809        3.11423        3.27886
H          6.15095        5.35909        1.94740
H          5.01574        5.41210        0.57039
H          6.55856        4.52278        0.44345
