40
2,6-DI-TERT-BUTYL-P-CRESOL.gamout	Energy:    -660.3621875
C          6.38482        1.91270       -0.60568
C          7.32414        3.04052       -1.09225
C          6.83000        0.56999       -0.47674
C          5.05099        2.17332       -0.27082
C          4.16949        1.17939        0.17352
C          4.65412       -0.12424        0.28767
C          2.73750        1.52042        0.51164
C          5.97950       -0.47077       -0.02615
C          6.47404       -1.93188        0.12468
O          8.13878        0.32818       -0.80943
C          7.61729       -2.01985        1.16539
C          6.91921       -2.50963       -1.24093
C          5.36545       -2.86855        0.63470
C          7.82418        2.74674       -2.52391
C          8.52470        3.19096       -0.13227
C          6.61171        4.40240       -1.13798
H          4.66616        3.19000       -0.35518
H          3.96575       -0.89289        0.63654
H          2.19474        0.64515        0.89933
H          2.67768        2.31370        1.27638
H          2.18676        1.88623       -0.37255
H          8.33866       -0.60750       -0.70208
H          7.25582       -1.69801        2.15404
H          7.97359       -3.05812        1.25488
H          8.48997       -1.39115        0.93320
H          6.07201       -2.52092       -1.94324
H          7.72411       -1.94448       -1.73480
H          7.27436       -3.54481       -1.11835
H          4.99585       -2.56708        1.62559
H          4.51087       -2.90800       -0.05648
H          5.76595       -3.88989        0.72639
H          8.38708        1.80731       -2.57503
H          6.97785        2.68111       -3.22661
H          8.48167        3.56243       -2.86620
H          9.11827        2.27105       -0.07746
H          9.17943        4.00659       -0.47891
H          8.18171        3.44342        0.88392
H          6.24960        4.71586       -0.14699
H          7.32062        5.16934       -1.48630
H          5.75944        4.40272       -1.83431
