19
2,6-DINITROTOLUENE.gamout	Energy:    -679.7025342
O          6.66267        4.12962       -0.55737
N          7.11850        3.05373       -0.90751
O          8.16994        2.89868       -1.50677
C          6.30509        1.84944       -0.61386
C          6.91605        0.60415       -0.34624
C          4.92197        2.04675       -0.63213
C          8.41132        0.42433       -0.24474
C          5.99846       -0.44732       -0.12753
C          4.06682        0.97247       -0.40235
N          6.46664       -1.83204        0.11940
C          4.61123       -0.28150       -0.13882
O          5.77417       -2.53175        0.83974
O          7.49067       -2.19438       -0.43624
H          4.54146        3.05001       -0.82509
H          8.82963        0.14804       -1.22464
H          8.90118        1.35363        0.06549
H          8.66657       -0.38127        0.45259
H          2.98422        1.11210       -0.42468
H          3.98160       -1.14806        0.06395
