19
2,6-XYLENOL.gamout	Energy:    -385.5849690
C          6.32183        1.88352       -0.66177
C          6.82847        0.59330       -0.40676
C          4.93990        2.07939       -0.55583
C          7.27084        2.99271       -1.03462
C          4.08118        1.03211       -0.20790
C          4.60734       -0.23630        0.03989
C          5.98526       -0.47923       -0.05468
C          6.57438       -1.84473        0.20847
O          8.17980        0.43455       -0.51934
H          4.53239        3.07593       -0.75064
H          8.02342        3.15762       -0.24536
H          7.83214        2.74845       -1.95222
H          6.73085        3.93662       -1.20066
H          3.00505        1.20572       -0.13032
H          3.94201       -1.06094        0.31266
H          7.29862       -1.83196        1.04475
H          5.79159       -2.56920        0.47485
H          7.09946       -2.24907       -0.67737
H          8.41866       -0.48024       -0.32458
