32
2,6-DIMETHYLOCTANE.gamout	Energy:    -393.7521257
C          3.01979        2.16908        2.66703
C          1.61049        2.06857        2.04559
C          1.14904        3.34460        1.31838
C          1.46469        0.84419        1.13210
C          4.18549        2.42801        1.70243
C          1.12201        4.61365        2.17315
C          5.53693        2.55421        2.41986
C          6.77266        2.69367        1.51132
C          8.06085        2.64790        2.34081
C          6.73322        3.96010        0.64953
H          3.01562        2.95851        3.43941
H          3.21546        1.23037        3.21685
H          0.91815        1.91944        2.89678
H          0.13648        3.16021        0.91756
H          1.78600        3.51403        0.43050
H          0.41386        0.69602        0.83498
H          2.05483        0.94925        0.20617
H          1.79995       -0.07624        1.63759
H          3.98908        3.34486        1.12101
H          4.25022        1.60978        0.96218
H          2.13096        4.92550        2.48870
H          0.68223        5.45560        1.61494
H          0.51972        4.47268        3.08726
H          5.68122        1.66623        3.06209
H          5.50444        3.41901        3.11143
H          6.78204        1.82144        0.82838
H          8.14104        1.70824        2.91113
H          8.09662        3.47970        3.06660
H          8.95353        2.72724        1.69986
H          5.86138        3.97614       -0.02208
H          6.68638        4.86677        1.27894
H          7.63481        4.03923        0.02128
