29
2,6-DIMETHYLHEPTANE.gamout	Energy:    -354.4988614
C          3.60491        1.23900        0.14815
C          2.64732        0.06008       -0.07665
C          1.18318        0.54188       -0.06688
C          0.11875       -0.56069       -0.03932
C         -1.31113       -0.01249        0.03932
C         -2.43465       -1.06795        0.04105
C         -3.80874       -0.39415       -0.07508
H          3.38304        1.76348        1.09214
H          4.65469        0.90429        0.18717
H          3.52108        1.97654       -0.66932
C          3.01250       -0.69619       -1.36150
H          2.77259       -0.63842        0.77350
H          1.03512        1.19146        0.81566
H          1.01774        1.19552       -0.94554
H          0.20745       -1.19872       -0.93686
H          0.31688       -1.22251        0.82300
H         -1.41439        0.61664        0.94482
H         -1.47278        0.66985       -0.81555
H         -4.62092       -1.13878       -0.11483
H         -4.00128        0.26089        0.79286
H         -3.87823        0.22895       -0.98194
C         -2.38238       -1.98312        1.27256
H         -2.29526       -1.70322       -0.85552
H         -2.47786       -1.39563        2.20301
H         -1.44047       -2.55056        1.33088
H         -3.20601       -2.71615        1.25838
H          4.06510       -1.02397       -1.34306
H          2.88178       -0.05050       -2.24789
H          2.39235       -1.59459       -1.50915
