24
2,6-DIMETHYLNAPHTHALENE.gamout	Energy:    -463.8888274
C          1.87221        1.83328        0.90835
C          0.57874        1.05596        0.92092
C          3.10361        1.20522        0.95782
C          1.84185        3.25798        0.84265
C          4.32306        1.93853        0.94455
C          3.00188        4.00048        0.82795
C          4.27706        3.36905        0.87814
C          5.59822        1.30710        0.99533
C          5.49649        4.10237        0.86492
C          6.75823        2.04963        0.98068
C          6.72789        3.47428        0.91402
C          8.02147        4.25132        0.89693
H         -0.06142        1.35867        1.76729
H         -0.00435        1.23313        0.00049
H          0.75702       -0.02671        1.00254
H          3.15388        0.11279        1.00909
H          0.87240        3.76448        0.80371
H          2.95684        5.09245        0.77701
H          5.64326        0.21514        1.04655
H          5.44622        5.19480        0.81371
H          7.72771        1.54325        1.02058
H          8.63508        4.02842        1.78673
H          8.63206        3.99139        0.01487
H          7.84224        5.33667        0.87406
