17
2,6-DIMETHYLPYRIDINE.gamout	Energy:    -326.4763535
C          2.42414        1.11069        0.00686
C          1.15970        0.28645       -0.01205
N          0.00001        0.95737        0.00003
C         -1.15967        0.28648        0.01209
C         -1.20212       -1.11782        0.01529
C         -0.00002       -1.82535       -0.00013
C          1.20211       -1.11784       -0.01522
C         -2.42413        1.11070       -0.00684
H          2.72788        1.32320        1.04745
H          3.26086        0.59160       -0.48505
H          2.24909        2.07828       -0.48450
H         -2.16172       -1.64095        0.02483
H         -0.00003       -2.91928       -0.00007
H          2.16169       -1.64100       -0.02447
H         -2.72920        1.32124       -1.04744
H         -3.26026        0.59254        0.48707
H         -2.24844        2.07917        0.48253
