26
2,6-DIETHYLANILINE.gamout	Energy:    -444.2450633
C          6.50351        1.81907       -0.50387
C          6.84426        0.51245       -0.13273
C          5.18728        2.27940       -0.43967
C          5.82033       -0.36340        0.31281
C          8.28341        0.04502       -0.22415
C          4.48089        0.09757        0.39832
N          6.14267       -1.65372        0.73949
C          4.19146        1.41251        0.01376
C          3.37153       -0.81653        0.87987
C          2.82211       -1.76594       -0.19998
C          8.61248       -0.74116       -1.50624
H          7.29859        2.49079       -0.84315
H          4.94162        3.30416       -0.72893
H          8.94679        0.92334       -0.16799
H          8.53398       -0.56844        0.66061
H          5.39054       -2.33015        0.75170
H          7.00624       -2.04551        0.38715
H          3.15653        1.76310        0.08235
H          3.72187       -1.40610        1.74690
H          2.54377       -0.19794        1.26323
H          2.02785       -2.41528        0.20420
H          2.39960       -1.19614       -1.04300
H          3.60889       -2.41784       -0.61598
H          9.66520       -1.06940       -1.51417
H          7.98068       -1.63882       -1.61639
H          8.44369       -0.11896       -2.39960
