30
2,6-DIMETHYL-4-HEPTANOL.gamout	Energy:    -429.6265667
C          3.30055        2.89384        2.29952
C          4.66116        2.24997        1.99397
C          2.05853        2.11979        1.81771
C          5.82045        3.13294        2.46010
O          4.83864        2.04019        0.59608
C          0.78905        2.95049        2.04866
C          1.92788        0.73532        2.46805
C          7.23094        2.56281        2.22032
C          8.29481        3.62147        2.53806
C          7.49155        1.27740        3.01639
H          3.29302        3.89729        1.83744
H          3.22193        3.04867        3.39197
H          4.72419        1.27945        2.52696
H          2.15977        1.97892        0.72387
H          5.73129        4.10038        1.93389
H          5.68905        3.34758        3.53678
H          4.20899        1.37160        0.29930
H          0.85512        3.93193        1.55158
H         -0.10616        2.43655        1.66145
H          0.62869        3.13267        3.12568
H          2.78954        0.08283        2.25141
H          1.02496        0.21195        2.11265
H          1.84958        0.82145        3.56607
H          7.29787        2.31791        1.14623
H          9.31030        3.24649        2.32837
H          8.26241        3.91096        3.60369
H          8.14731        4.53717        1.94183
H          8.51124        0.89845        2.83598
H          6.79369        0.46967        2.74388
H          7.39300        1.45437        4.10251
