23
2,6-DIMETHYLQUINOLINE.gamout	Energy:    -479.9147566
C         -3.92397       -5.75052        0.68159
C         -2.52188       -5.93112        0.48816
C         -4.38031       -4.49786        1.05293
C         -4.86397       -6.91362        0.47986
C         -1.62933       -4.89616        0.66199
C         -2.08369       -3.60275        1.04363
C         -3.48763       -3.40746        1.24134
C         -3.90738       -2.10375        1.62273
N         -1.17255       -2.60301        1.20655
C         -1.58759       -1.40295        1.56063
C         -2.96986       -1.11074        1.78142
C         -0.55273       -0.31829        1.73250
H         -2.15328       -6.91909        0.19449
H         -5.45103       -4.33020        1.20849
H         -5.91020       -6.62572        0.66209
H         -4.79604       -7.30830       -0.54854
H         -4.61907       -7.74734        1.16022
H         -0.55555       -5.03171        0.51459
H         -4.97136       -1.90544        1.78561
H         -3.26761       -0.10014        2.07403
H         -0.56673        0.08637        2.75912
H          0.44575       -0.72451        1.52337
H         -0.74572        0.52679        1.04953
