32
2-(4-(2-HYDROXYETHYL)-1-PIPERAZINYL)ETHANESULFONATE-1.gamout	Energy:   -1122.5149743
O         -5.30707       -1.29837       -0.67780
C         -4.15744       -1.21972        0.15108
H         -6.08158       -1.11395       -0.13287
C         -2.92840       -1.45482       -0.72317
H         -4.09306       -0.23057        0.64765
H         -4.16785       -1.98650        0.95243
N         -1.69138       -1.46011        0.03012
H         -2.93557       -0.70627       -1.55006
H         -3.05589       -2.43969       -1.20156
C         -1.21740       -0.12938        0.38753
C          0.01793       -0.21684        1.28049
H         -2.01110        0.41529        0.92499
H         -0.96103        0.46384       -0.52101
C         -0.61764       -2.21528       -0.61511
C          0.61783       -2.30949        0.27272
H         -0.30412       -1.75384       -1.57722
H         -0.98445       -3.23246       -0.83190
N          1.06088       -0.98509        0.65106
H         -0.29106       -0.64658        2.27013
H          0.38906        0.80363        1.47813
H          1.41234       -2.77825       -0.32396
H          0.38021       -2.94893        1.16116
C          2.33040       -0.89250        1.35195
C          3.48760       -1.72410        0.80505
H          2.20258       -1.16104        2.43465
H          2.64680        0.16430        1.31800
S          4.02185       -1.37485       -0.93418
H          4.38187       -1.51002        1.41004
H          3.30582       -2.80933        0.86120
O          5.32979       -2.08229       -1.02244
O          2.95861       -1.97495       -1.80031
O          4.11677        0.11215       -0.99279
