24
2-BIPHENYLAMINE.gamout	Energy:    -517.9618976
N          0.80015       -2.22885       -0.57339
C          0.69541       -0.13588        0.70768
C         -0.76894       -0.26684        0.96179
C          1.41846       -1.09857       -0.05124
C          1.38944        0.97603        1.21587
C         -1.32836       -1.45350        1.47846
C         -1.63369        0.81953        0.72174
C          2.80092       -0.90628       -0.25138
C          2.75864        1.15556        1.01440
C          3.46342        0.19976        0.27624
C         -2.69712       -1.54633        1.74546
C         -3.00203        0.72595        0.98732
C         -3.54096       -0.45887        1.49834
H          0.83004        1.70789        1.80498
H         -0.67686       -2.30453        1.69054
H         -1.22181        1.74532        0.31168
H          3.35547       -1.64600       -0.83717
H          3.26947        2.02458        1.43559
H          4.53683        0.31677        0.10278
H         -3.10599       -2.47317        2.15765
H         -3.65289        1.58141        0.78597
H         -4.61191       -0.53405        1.70492
H         -0.20129       -2.16738       -0.72263
H          1.28889       -2.68141       -1.33755
