8
2-BROMO-2-CHLORO-1,1,1-TRIFLUOROETHANE.gamout	Energy:   -3409.6311552
C         41.00255       20.01156        0.03007
C         39.46338       20.00454        0.01776
F         38.94610       20.62178        1.07705
F         39.01682       20.60921       -1.08922
F         39.01970       18.74146        0.00375
Br        41.68095       21.84284       -0.03529
Cl        41.62081       19.11585        1.43401
H         41.35583       19.51489       -0.88037
