11
2-BROMOPROPANE.gamout	Energy:   -2692.0981999
C          0.05003       -0.02995        0.07200
C          1.56561       -0.02201       -0.04732
C         -0.58887        1.34388       -0.04692
Br        -0.46994       -0.84902        1.82116
H         -0.39016       -0.72552       -0.65611
H          1.98644       -1.03199        0.06199
H          2.02130        0.62841        0.71595
H          1.85320        0.36429       -1.04162
H         -1.68210        1.29500        0.06275
H         -0.36221        1.77076       -1.04031
H         -0.19423        2.03179        0.71752
