14
2-BROMOBUTANE.gamout	Energy:   -2731.3542987
C          0.00215       -0.17062       -0.25582
C          1.52219       -0.05072       -0.17000
Br         2.07907        1.87325       -0.23121
C          2.11550       -0.68729        1.07687
C         -0.62886        0.31902       -1.55752
H         -0.44279        0.35184        0.60900
H         -0.22606       -1.24467       -0.11644
H          1.98946       -0.46715       -1.07475
H          1.89541       -1.76939        1.07950
H          1.68465       -0.24763        1.99021
H          3.20691       -0.55874        1.11578
H         -0.43139        1.38982       -1.71892
H         -1.72070        0.17341       -1.54164
H         -0.23264       -0.23158       -2.42757
