31
2-BUTYL-2-ETHYL-1,3-PROPANEDIOL.gamout	Energy:    -504.7409469
O          3.13594       -0.05432        0.34111
O          0.52721       -2.52340        0.01005
C          0.74411       -0.11051       -0.04750
C         -0.59115       -0.02076        0.73509
C          0.93622        1.04823       -1.06070
C          1.87951       -0.10742        0.99740
C          0.82321       -1.42909       -0.84244
C         -1.88330       -0.02152       -0.08828
C         -3.14163        0.06624        0.78444
C          0.88963        2.46795       -0.49031
C         -4.44560        0.05260       -0.01511
H         -0.62875       -0.87576        1.43014
H         -0.56853        0.88559        1.36587
H          1.91273        0.90098       -1.54897
H          0.17726        0.95091       -1.85638
H          1.74787        0.75782        1.67711
H          1.78644       -1.02681        1.60495
H          1.84383       -1.51453       -1.26006
H          0.11645       -1.38599       -1.69533
H         -1.93687       -0.94304       -0.69487
H         -1.88761        0.81986       -0.80481
H         -3.09427        0.98546        1.39747
H         -3.14087       -0.77278        1.50441
H          1.04189        3.20705       -1.29397
H         -0.07587        2.70093       -0.01300
H          1.68460        2.63362        0.25417
H         -4.54234       -0.87266       -0.60834
H         -5.32665        0.11832        0.64399
H         -4.49391        0.90096       -0.71931
H          3.82974       -0.15239        1.00413
H          0.67916       -3.34010       -0.48037
