15
2-BUTANOL.gamout	Energy:    -233.3451781
C         -4.46866       -1.40443        0.02213
C         -3.23377       -0.51258       -0.16025
H         -1.31440       -0.41376       -1.18789
H         -1.76281       -2.05013       -0.64828
H         -2.55653       -1.32299       -2.07723
H         -3.73872       -2.56768        1.70983
H         -5.15482       -3.27916        0.89319
H         -3.55035       -3.39829        0.14541
C         -2.15998       -1.11379       -1.07003
O         -2.71591       -0.24703        1.13795
H         -1.93515        0.31330        1.04405
C         -4.20996       -2.73618        0.72989
H         -5.20753       -0.82459        0.60176
H         -4.92027       -1.57659       -0.97088
H         -3.58357        0.43379       -0.62559
