11
2-CHLOROPROPANE.gamout	Energy:    -578.3695069
C          0.66951        1.27183        1.80205
C          2.06355        1.84118        1.58453
C          3.04865        0.84940        0.98340
Cl         1.94968        3.31204        0.49397
H         -0.00827        2.03058        2.22014
H          0.24180        0.91160        0.85307
H          0.71843        0.42299        2.50548
H          2.46034        2.23744        2.53137
H          2.68659        0.47968        0.01104
H          4.03462        1.31237        0.83077
H          3.17052       -0.01344        1.66055
