13
2-CHLOROPHENOL.gamout	Energy:    -766.4658200
Cl         2.35139       -1.01726        0.10477
O          1.53101        1.79485        0.18784
C          0.47044        0.95792        0.11716
C          0.70794       -0.43086        0.07029
C         -0.85699        1.41035        0.08850
C         -0.35642       -1.33074       -0.00285
C         -1.92160        0.50870        0.01521
C         -1.67487       -0.86573       -0.03072
H         -1.04963        2.48803        0.12450
H         -0.13701       -2.39974       -0.03758
H         -2.94657        0.88734       -0.00576
H         -2.50168       -1.57723       -0.08806
H          1.21653        2.70853        0.21303
