9
2-CHLOROETHANOL.gamout	Energy:    -614.2293843
Cl        -5.24781        1.93491        0.18259
C         -3.78032        2.94443       -0.09152
C         -2.52653        2.08584       -0.06352
H         -3.74479        3.71068        0.69524
H         -3.88792        3.44233       -1.06509
O         -1.43565        2.95318       -0.28496
H         -2.60944        1.30208       -0.84309
H         -2.46534        1.57035        0.91586
H         -0.62168        2.43476       -0.27292
