8
2-CHLORO-1,1,1,2-TETRAFLUOROETHANE.gamout	Energy:    -935.6299119
C          0.16348        0.86995       -0.12576
C          0.67988       -0.53589        0.22627
F         -1.16403        0.85156       -0.27257
F          2.01785       -0.46707        0.40457
Cl         0.27719       -1.70164       -1.05801
F          0.46351        1.70439        0.87836
F          0.71729        1.33732       -1.24194
H          0.19710       -0.87242        1.15648
