16
2-CHLOROMETHYLPHENOL.gamout	Energy:    -805.7254137
Cl         2.97021       -0.17903       -0.82148
O          0.49271        2.19447        0.19116
C          0.46055       -0.16827        0.34622
C         -0.21947        1.04265        0.09197
C         -0.25690       -1.36806        0.24947
C          1.92028       -0.15851        0.67906
C         -1.58117        1.03017       -0.24004
C         -1.61377       -1.38712       -0.08277
C         -2.27361       -0.17955       -0.32860
H          0.26916       -2.30883        0.43797
H          2.20571       -1.04981        1.25138
H          2.20829        0.74504        1.22812
H         -2.09660        1.97710       -0.43314
H         -2.15216       -2.33544       -0.14823
H         -3.33519       -0.17436       -0.59033
H         -0.07284        2.94738       -0.02598
