15
2-CHLOROETHYL_ETHER.gamout	Energy:   -1152.1390614
Cl         1.08215       -0.17622       -0.03256
C          2.87576       -0.01358       -0.05625
C          3.27046        1.44121       -0.24975
O          4.67748        1.49891       -0.25744
C          5.20205        2.79550       -0.42496
C          6.71697        2.67991       -0.40501
Cl         7.46951        4.30336       -0.61035
H          3.26237       -0.63560       -0.87516
H          3.26419       -0.39888        0.89643
H          2.84802        2.05806        0.56935
H          2.84711        1.82440       -1.20016
H          4.86503        3.47156        0.38675
H          4.86872        3.24159       -1.38377
H          7.07114        2.03596       -1.22164
H          7.06297        2.26367        0.55108
