12
2-CIS-1-CHLOROBUTENE.gamout	Energy:    -616.4025014
C          0.49221        0.65531        0.09173
C         -0.18947       -0.49615        0.01276
Cl        -0.41704        2.16510        0.26245
C          1.97330        0.87853        0.05677
C          0.38709       -1.87440       -0.13320
H         -1.28176       -0.43225        0.05916
H          2.24551        1.53721       -0.78484
H          2.31148        1.37709        0.98051
H          2.52439       -0.06637       -0.04966
H          1.48551       -1.88327       -0.17396
H          0.07562       -2.51842        0.70831
H          0.01228       -2.35976       -1.05190
