31
2-CYCLOHEXENYLCYCLOHEXANONE.gamout	Energy:    -542.5868848
O          0.91468       -2.03424       -0.44843
C          0.65213        0.22384        0.41674
C          1.33497        1.46980       -0.20994
C         -0.84033        0.14544        0.15286
C          2.83070        1.55045        0.11329
C         -1.74532        0.15096        1.36945
C          3.56846        0.28138       -0.32541
C          1.43258       -1.05051        0.02713
C          2.93319       -0.97716        0.29308
C         -3.19269       -0.24973        1.05598
C         -3.68838        0.42474       -0.22695
C         -1.33836        0.07126       -1.09217
C         -2.80928        0.02691       -1.41873
H          0.80626        0.30844        1.51082
H          0.81124        2.37423        0.14076
H          1.19579        1.44093       -1.30494
H          2.96665        1.69783        1.20130
H          3.27279        2.43550       -0.37503
H         -1.32443       -0.52934        2.13243
H         -1.72107        1.15663        1.83660
H          4.63548        0.33435       -0.05173
H          3.53326        0.19970       -1.42689
H          3.07963       -0.95221        1.38962
H          3.39099       -1.90363       -0.08398
H         -3.24581       -1.34588        0.92719
H         -3.84586       -0.00082        1.90909
H         -3.65756        1.52204       -0.09516
H         -4.74112        0.16247       -0.42530
H         -0.64875        0.02053       -1.94237
H         -3.01737        0.67885       -2.28640
H         -3.07305       -0.99478       -1.75773
