15
2-CYCLOHEXENE-1-ONE.gamout	Energy:    -308.2507089
C         -2.74022        4.14009       -0.32237
C         -3.52321        2.94956        0.24559
C         -1.27795        4.11970        0.13820
H         -3.22331        5.08921       -0.03924
H         -2.76932        4.08835       -1.42532
C         -0.58695        2.79480       -0.17121
H         -1.22524        4.26095        1.23535
H         -0.68139        4.92715       -0.31266
C         -1.44663        1.58535       -0.11979
C         -2.77478        1.65368        0.09233
H         -4.51235        2.86502       -0.23681
H         -3.73817        3.10575        1.32234
H         -3.35452        0.72585        0.16875
H         -0.92877        0.62987       -0.24474
O          0.60424        2.72340       -0.40661
