28
2-DECYNE.gamout	Energy:    -391.2923377
C          6.35810        3.00232        1.64887
C          4.95843        2.48106        2.00425
C          3.79647        3.34299        1.49135
C          6.74509        4.31969        2.35292
C          2.39789        2.82396        1.85888
C          8.10497        4.76965        2.04622
C          1.99377        1.49695        1.20378
C          9.23347        5.12759        1.77922
C          0.56447        1.07051        1.54433
C         10.59062        5.56552        1.46248
H          6.43707        3.14455        0.55654
H          7.10813        2.23800        1.91301
H          4.87479        2.37647        3.10300
H          4.86339        1.46034        1.59669
H          3.89643        4.36805        1.88832
H          3.87466        3.43614        0.39140
H          6.64285        4.18851        3.44661
H          6.03390        5.11926        2.07933
H          1.65327        3.59196        1.58061
H          2.32678        2.72173        2.95858
H          2.09984        1.58985        0.10689
H          2.69167        0.69768        1.50929
H          0.29663        0.11829        1.05824
H          0.43461        0.93544        2.63168
H         -0.16898        1.82771        1.21858
H         11.28434        5.36412        2.29631
H         10.62675        6.64863        1.25592
H         10.98363        5.04591        0.57223
