33
2-ETHYLHEXYL_ACRYLATE.gamout	Energy:    -580.8666364
C          5.25824        4.33118        2.82563
C          4.28605        3.42551        2.07454
C          2.87014        3.54443        2.67549
C          4.79810        1.97100        2.06099
O          6.48016        4.41867        2.07664
C          2.12779        4.85342        2.36917
C          4.14050        1.06960        1.01449
C          7.45989        5.17965        2.59964
C          0.71227        4.94184        2.95995
C          8.67515        5.23327        1.74562
O          7.36138        5.76476        3.65438
C          0.66089        5.04935        4.48561
C          8.78177        4.67600        0.53484
H          5.48028        3.93626        3.83223
H          4.85783        5.34734        2.96025
H          4.25828        3.78640        1.02817
H          2.94236        3.39011        3.76800
H          2.25686        2.70784        2.30055
H          5.88492        1.99045        1.87971
H          4.66390        1.53707        3.06962
H          2.06236        4.96641        1.27226
H          2.71427        5.72052        2.72426
H          4.30682        1.45821       -0.00450
H          3.05121        0.97850        1.15982
H          4.55890        0.05160        1.05363
H          0.20844        5.82102        2.52225
H          0.12226        4.06601        2.63072
H          9.49359        5.80508        2.19152
H          1.20991        5.93746        4.84271
H         -0.37798        5.13759        4.84067
H          1.09942        4.16759        4.98067
H          7.95281        4.11364        0.09812
H          9.70102        4.76921       -0.04898
