20
2-ETHYL_BUTYRIC_ACID.gamout	Energy:    -385.8231045
C         51.29410       40.83625       -0.60187
C         50.26207       39.86945       -0.04353
C         50.81669       38.42993        0.01156
C         49.75170       40.33389        1.33718
O         52.39878       40.90988        0.17713
O         51.18279       41.48118       -1.61490
C         51.26497       37.86925       -1.33875
C         49.11193       41.72336        1.34204
H         49.42745       39.90358       -0.76317
H         51.65505       38.40101        0.72787
H         50.02518       37.78599        0.43303
H         49.01587       39.58848        1.68578
H         50.59023       40.30242        2.05318
H         52.99885       41.54466       -0.25156
H         51.61605       36.83001       -1.23617
H         50.44116       37.87322       -2.07172
H         52.09341       38.45313       -1.77312
H         48.73388       41.97991        2.34451
H         49.83010       42.50795        1.05172
H         48.26419       41.77793        0.63925
