21
2-ETHYL-1-PENTENE.gamout	Energy:    -274.7584011
C          0.71609        0.73790        0.92173
C          1.39189        2.10159        0.75576
C          2.06459        2.66090        2.03424
C          2.96837        3.81555        1.67694
C          1.02311        3.07598        3.09913
C          4.29508        3.85339        1.83482
C          1.61918        3.47532        4.45015
H          1.44220       -0.03039        1.23769
H          0.27295        0.40064       -0.02947
H         -0.09427        0.75576        1.66805
H          0.65809        2.84255        0.38691
H          2.16135        2.02299       -0.03120
H          2.69328        1.85737        2.46381
H          2.46419        4.68429        1.22856
H          0.31609        2.24296        3.25014
H          0.42110        3.91163        2.69503
H          4.88409        4.72453        1.53229
H          4.84413        3.01295        2.27410
H          0.83057        3.76692        5.16251
H          2.31697        4.32215        4.35268
H          2.18122        2.63900        4.90023
