24
2-ETHYL-1-HEXENE.gamout	Energy:    -314.0185945
C          3.26277        1.62688        2.96587
C          2.64357        2.79679        2.22345
C          2.02846        2.52506        0.86372
C          2.62885        4.02857        2.75519
C          4.47098        0.97044        2.26836
C          0.81017        1.58906        0.89286
C          5.68238        1.89269        2.09887
C          6.87326        1.21112        1.42301
H          2.49311        0.84968        3.12376
H          3.56842        1.96581        3.97030
H          2.79333        2.08971        0.19417
H          1.73537        3.48579        0.40961
H          3.06368        4.23153        3.73883
H          2.18026        4.87603        2.22691
H          4.16743        0.58106        1.27915
H          4.76947        0.08489        2.85837
H          0.39123        1.46214       -0.11863
H          1.06544        0.58511        1.26900
H          0.01466        1.99475        1.53930
H          5.98808        2.27114        3.09199
H          5.38647        2.78348        1.51733
H          7.72784        1.89933        1.31837
H          7.22119        0.33692        1.99999
H          6.61070        0.85281        0.41275
