26
2-ETHYL-HEXANOIC_ACID.gamout	Energy:    -464.3363128
C         -4.19013       -0.14453       -0.26519
C         -2.85938        0.59194       -0.10258
H         -4.36535       -0.84568        0.56828
H         -4.21385       -0.73041       -1.19981
H         -5.03942        0.55749       -0.29209
C         -1.64300       -0.34034       -0.06336
H         -2.88222        1.19586        0.82298
H         -2.73334        1.31464       -0.92969
C         -0.31379        0.40318        0.10034
H         -1.61654       -0.94413       -0.98994
H         -1.77173       -1.06222        0.76402
C          0.93738       -0.49774        0.09068
H         -0.32271        0.97518        1.04466
H         -0.20485        1.14205       -0.71320
C          2.23677        0.33287        0.13779
C          3.51936       -0.48997        0.00643
H          2.24867        0.89781        1.08561
H          2.19034        1.08095       -0.67252
H          3.63170       -1.20796        0.83563
H          3.53756       -1.06354       -0.93548
H          4.40784        0.16166        0.01715
C          0.89778       -1.44488        1.27983
H          0.93409       -1.10989       -0.82658
O          0.88290       -2.74458        0.91587
H          0.86101       -3.26322        1.74018
O          0.88494       -1.09991        2.43707
