18
2-ETHYL-1-BUTENE.gamout	Energy:    -235.5062791
C          1.20386        2.00205        1.60435
C          2.29621        1.35644        2.43584
C          3.71054        1.87994        2.27200
C          2.02058        0.35694        3.28681
C          0.94281        3.47906        1.94013
C          4.31429        1.64434        0.87843
H          1.46147        1.92193        0.53219
H          0.27108        1.43005        1.73878
H          3.72923        2.96397        2.48867
H          4.35472        1.40527        3.03031
H          1.00414       -0.03223        3.40439
H          2.80164       -0.10827        3.89671
H          0.66940        3.60112        3.00102
H          1.82568        4.11023        1.74855
H          0.11644        3.87842        1.32998
H          5.35191        2.01327        0.83421
H          4.32640        0.57076        0.62848
H          3.74904        2.16390        0.08760
