24
2-ETHYL-P-XYLENE.gamout	Energy:    -388.9627317
C          2.14214        5.56990        2.88153
C          2.55258        5.14383        1.46186
C          2.97234        3.68965        1.36592
C          2.03286        2.65635        1.13621
C          4.32331        3.35419        1.53727
C          0.56507        2.94696        0.91919
C          2.49754        1.33404        1.09317
C          4.78863        2.03130        1.50048
C          3.84664        1.02009        1.27172
C          6.24894        1.71469        1.72027
H          1.29389        4.97442        3.25609
H          1.84524        6.63150        2.90772
H          2.97539        5.43335        3.58972
H          3.38993        5.78056        1.12991
H          1.72068        5.34656        0.76754
H          5.04474        4.16218        1.70329
H          0.11610        3.48805        1.76873
H         -0.00501        2.01593        0.78324
H          0.39774        3.56940        0.02279
H          1.78170        0.52713        0.90831
H          4.16902       -0.02460        1.22702
H          6.52445        0.74473        1.27795
H          6.48989        1.66274        2.79730
H          6.90158        2.48598        1.28093
