15
2-ETHYLTHIOPHENE.gamout	Energy:    -631.1372604
S         -0.74544        1.43711       -0.11823
C          1.81419        0.38583        0.47060
C          0.34816        0.12646        0.23219
C          2.73979       -0.29705       -0.54698
C         -0.33325       -1.07007        0.23918
C         -1.72844       -0.93332       -0.03705
C         -2.10094        0.36984       -0.25191
H          1.99691        1.47317        0.45944
H          2.07872        0.05108        1.49013
H          2.61824       -1.39191       -0.52751
H          3.79651       -0.07168       -0.32920
H          2.51984        0.04350       -1.57146
H          0.15029       -2.02895        0.43939
H         -2.42687       -1.77179       -0.07251
H         -3.09071        0.76388       -0.47938
