21
2-ETHOXYETHYL_ACETATE.gamout	Energy:    -460.9216261
C         -1.93852        1.29796        0.87170
C         -2.84869        0.95251       -0.29092
H         -3.76256        1.55149       -0.20132
H         -3.11181       -0.11716       -0.28799
H         -2.36399        1.16722       -1.25634
C         -0.33212       -0.31037       -0.01954
C          1.03944       -0.80960        0.40353
C          2.71539       -2.33024       -0.29270
C          3.03118       -3.33085       -1.38889
H          2.27209       -4.12834       -1.41598
H          4.01631       -3.79271       -1.21789
H          3.04367       -2.83616       -2.37275
O         -0.74485        0.65193        0.94310
H         -1.03144       -1.16322       -0.06484
H         -0.26582        0.13041       -1.02927
O          1.44854       -1.75918       -0.54414
H          0.97592       -1.24537        1.42206
H          1.74415        0.04586        0.46090
H          3.49137       -1.53650       -0.25410
H          2.72076       -2.82592        0.70124
O         -2.21608        2.10022        1.72059
