24
2-ETHYL-M-XYLENE.gamout	Energy:    -388.9601115
C          0.88658        2.80315        0.70820
C          2.04473        3.42436        1.50892
C          2.62284        2.50118        2.56750
C          2.08460        2.49552        3.87746
C          3.68496        1.62246        2.24439
C          0.96275        3.42952        4.27526
C          2.61064        1.61482        4.83493
C          4.30555        1.60347        0.86474
C          4.18572        0.75578        3.22808
C          3.65423        0.74688        4.51684
H          1.20400        1.89057        0.17843
H          0.04761        2.52043        1.36418
H          0.50213        3.51193       -0.04381
H          1.69136        4.35541        1.97903
H          2.83532        3.73058        0.80564
H          1.26949        4.48826        4.21365
H          0.07526        3.31860        3.63101
H          0.64386        3.24024        5.31094
H          2.19191        1.61442        5.84558
H          3.56321        1.41010        0.07340
H          4.78900        2.56508        0.61913
H          5.07602        0.82144        0.79400
H          5.00680        0.07927        2.97334
H          4.05396        0.06527        5.27260
