20
2-ETHYL-1-NITROBENZENE.gamout	Energy:    -514.7057949
C          7.13451        3.10209       -1.01916
C          7.39830        4.00877        0.19376
C          6.30270        1.87902       -0.68526
C          6.79969        0.61571       -0.30055
C          4.90110        1.98511       -0.76573
N          8.25128        0.34984       -0.17501
C          5.96104       -0.47227       -0.02525
C          4.04973        0.92027       -0.47167
O          8.62028       -0.80900       -0.27792
O          8.99797        1.29395        0.03912
C          4.58022       -0.31911       -0.09813
H          6.58262        3.67408       -1.78374
H          8.09391        2.80567       -1.46236
H          7.97199        4.89855       -0.11163
H          7.97958        3.47386        0.95824
H          6.45591        4.35333        0.65000
H          4.47383        2.94267       -1.07669
H          6.41806       -1.42416        0.24479
H          2.96740        1.05610       -0.54271
H          3.92368       -1.16206        0.12948
