32
2-ETHYLHEXYL_ACETATE.gamout	Energy:    -542.8381395
C          0.92181        4.19707        2.77994
C          1.76999        2.96522        2.45669
C          3.25104        3.12594        2.82072
C          4.10724        1.90161        2.46751
C          5.61016        2.02404        2.78889
C          5.83078        1.88875        4.29932
C          6.46455        0.99945        2.01888
C          8.86641        3.64483        5.49197
C          7.41883        3.47647        5.10135
O          7.17717        2.21374        4.68610
O          6.57669        4.33791        5.15952
C          6.61669        1.28421        0.52318
H          0.94884        4.43397        3.85717
H          1.28334        5.08838        2.23932
H         -0.13258        4.04396        2.49980
H          1.68319        2.73266        1.37884
H          1.35575        2.08635        2.98510
H          3.33115        3.35714        3.89826
H          3.65808        4.01200        2.29902
H          3.99040        1.69935        1.38939
H          3.70646        1.00591        2.98024
H          5.94354        3.03894        2.50106
H          5.14270        2.53983        4.85324
H          5.68008        0.84510        4.61928
H          7.46537        0.97131        2.48028
H          6.03203       -0.00868        2.16538
H          9.06367        3.08502        6.42065
H          9.08159        4.70776        5.65408
H          9.52537        3.22908        4.71561
H          7.11185        2.25460        0.35020
H          5.64702        1.31227       -0.00089
H          7.22718        0.50846        0.03472
