16
2-ETHOXYETHANOL.gamout	Energy:    -308.4579043
O         -1.15010        0.22683       -0.03766
O          2.42451       -0.06553       -0.16217
C          0.08932       -0.43232       -0.07915
C         -2.26454       -0.63456        0.01144
C          1.18852        0.61569       -0.12305
C         -3.53316        0.19751        0.05374
H          0.23583       -1.07910        0.81160
H          0.17231       -1.08867       -0.97079
H         -2.27005       -1.30714       -0.87327
H         -2.20221       -1.29274        0.90494
H          1.09110        1.26546        0.77021
H          1.03053        1.25748       -1.01362
H         -4.42185       -0.45222        0.09462
H         -3.53713        0.85058        0.94071
H         -3.60818        0.83545       -0.84103
H          3.13280        0.58822       -0.18981
