27
2-ETHYL-1-HEXANOL.gamout	Energy:    -390.3610362
C          3.66890        2.24578        2.10340
C          4.96356        2.32113        2.93986
C          5.02870        3.58014        3.83266
C          6.21012        2.16889        2.06416
C          3.28689        0.83505        1.63297
C          5.01334        4.92662        3.10245
O          7.35462        2.12846        2.89667
C          2.03175        0.76340        0.74958
C          0.73415        1.20217        1.43458
H          2.84488        2.65873        2.71016
H          3.75030        2.91086        1.22232
H          4.96997        1.45403        3.62703
H          5.93837        3.51304        4.45012
H          4.17393        3.54095        4.53188
H          6.12691        1.24234        1.46145
H          6.26371        3.01174        1.34317
H          4.12960        0.39154        1.07440
H          3.14241        0.18717        2.51848
H          5.07943        5.75891        3.82210
H          4.09007        5.07405        2.51771
H          5.86532        5.03079        2.41055
H          8.13973        2.08173        2.33772
H          2.19109        1.37274       -0.15991
H          1.91555       -0.27593        0.39414
H          0.55400        0.62038        2.35507
H         -0.13549        1.05497        0.77368
H          0.75287        2.26760        1.71589
