17
2-ETHYLPYRIDINE.gamout	Energy:    -326.4700661
C          2.24845       -4.67423        0.59625
C          3.20547       -4.02436       -0.41292
C          3.20011       -2.51375       -0.33008
C          4.30614       -1.79199        0.14971
N          2.07328       -1.89769       -0.72013
C          4.23280       -0.39939        0.22129
C          2.00819       -0.56797       -0.64927
C          3.05763        0.23374       -0.18678
H          2.23174       -5.76966        0.47822
H          2.54675       -4.44888        1.63350
H          1.22603       -4.29375        0.44734
H          2.90063       -4.31075       -1.43395
H          4.23074       -4.40084       -0.26152
H          5.21159       -2.31988        0.46007
H          5.08247        0.18237        0.58974
H          1.06926       -0.10659       -0.98095
H          2.95224        1.32073       -0.15114
