11
2-FLUOROPROPANE.gamout	Energy:    -218.0925723
C         34.00868        0.97014       -0.03961
C         32.69741        1.73608       -0.10539
C         32.84020        3.22801        0.14458
F         32.14684        1.55403       -1.37516
H         34.45280        1.03806        0.96640
H         33.84586       -0.09275       -0.27553
H         34.72883        1.37959       -0.76665
H         31.97553        1.30337        0.61371
H         31.86810        3.73351        0.03734
H         33.21943        3.42065        1.16102
H         33.54282        3.67308       -0.57868
