16
2-HEXYNE.gamout	Energy:    -234.2698122
C          3.52821        1.58452        1.25834
C          4.59100        2.15171        1.10948
C          5.87523        2.82473        0.93092
C          2.23748        0.91060        1.42987
C          1.01252        1.77592        1.06558
C          0.84194        3.01416        1.94567
H          5.78347        3.69411        0.25792
H          6.62741        2.14651        0.49369
H          6.27642        3.19082        1.89110
H          2.14389        0.57023        2.47834
H          2.22689       -0.00643        0.81369
H          0.11419        1.13858        1.13989
H          1.09538        2.07910        0.00750
H         -0.03842        3.60121        1.63853
H          1.72523        3.66969        1.88323
H          0.70637        2.73818        3.00544
