21
2-HEXANETHIOL.gamout	Energy:    -634.7473489
C         33.92545       30.03607       -0.08358
C         32.62192       29.22136       -0.06138
C         33.72931       31.55608       -0.03442
C         31.74391       29.41557       -1.29686
S         33.11823       27.44437        0.14565
C         35.05116       32.32946        0.04198
C         34.86846       33.84717        0.08557
H         34.54068       29.73160        0.78166
H         34.50293       29.76372       -0.98618
H         32.05334       29.50144        0.84166
H         33.16633       31.89642       -0.92192
H         33.10661       31.81659        0.84247
H         30.83244       28.79956       -1.23890
H         31.42289       30.46659       -1.39401
H         32.28652       29.13206       -2.21326
H         31.86834       26.92304        0.13018
H         35.61115       31.99875        0.93586
H         35.67933       32.05787       -0.82630
H         35.83690       34.37021        0.14186
H         34.34427       34.21554       -0.81284
H         34.27378       34.15574        0.96235
