19
2-HEPTYNE.gamout	Energy:    -273.5260840
C          5.47481        1.72102        1.85272
C          4.30594        1.05529        1.09786
C          2.98443        1.60609        1.41434
C          5.67615        3.20166        1.51862
C          1.89502        2.06628        1.68775
C          6.83569        3.84147        2.28383
C          0.57867        2.61292        2.00848
H          6.39756        1.16188        1.61474
H          5.31116        1.60631        2.93909
H          4.48146        1.13765        0.00883
H          4.30264       -0.02708        1.31986
H          4.74203        3.74946        1.73290
H          5.84835        3.30522        0.43120
H          6.67545        3.78739        3.37412
H          7.79190        3.33505        2.06697
H          6.95661        4.90452        2.01949
H          0.60707        3.71262        2.09042
H         -0.16163        2.35820        1.23127
H          0.20147        2.21844        2.96713
