36
2-HEXYLNAPHTHALENE.gamout	Energy:    -620.9097506
C          8.54524        3.50657        0.87523
C          8.25839        2.29030       -0.02753
C          6.96217        1.58511        0.30312
C          9.87124        4.20887        0.56057
C          5.81297        1.77562       -0.44121
C          6.89867        0.71861        1.43138
C         10.16531        5.42438        1.45022
C          4.58518        1.13913       -0.10972
C          5.72866        0.08499        1.78229
C         11.49176        6.12445        1.13527
C          4.53842        0.27332        1.02875
C          3.39959        1.32887       -0.87101
C         11.77526        7.33498        2.02658
C          3.31385       -0.36559        1.35992
C          2.22494        0.69629       -0.52518
C          2.18106       -0.16025        0.60223
H          7.70814        4.22190        0.78260
H          8.54197        3.17933        1.93089
H          9.09438        1.57307        0.06291
H          8.24191        2.61464       -1.08144
H         10.69896        3.48062        0.65622
H          9.87303        4.52372       -0.50022
H          5.83572        2.43091       -1.31668
H          7.80166        0.55010        2.02488
H          9.33726        6.15237        1.35651
H         10.16490        5.10832        2.51078
H          5.70590       -0.57842        2.65039
H         12.31922        5.39729        1.23201
H         11.49472        6.43981        0.07535
H          3.43069        1.98799       -1.74211
H         12.73561        7.80786        1.76727
H         10.99013        8.10389        1.92647
H         11.82263        7.05079        3.09182
H          3.28395       -1.02574        2.23025
H          1.32281        0.85389       -1.12089
H          1.24542       -0.65727        0.86786
