24
2-HEPTANOL.gamout	Energy:    -351.1139672
C          3.35644        1.54557        0.09177
C          2.08771        0.69102        0.05154
C          3.13498        3.05840        0.03871
C          2.37694       -0.81299        0.00133
C          2.41910        3.62389        1.26535
O          4.42760        3.63565       -0.10002
C          1.12041       -1.68837       -0.03411
C          1.42066       -3.18711       -0.08540
H          3.94339        1.31564        0.99978
H          4.00354        1.28821       -0.76465
H          1.48199        0.97432       -0.83011
H          1.45567        0.90274        0.93351
H          2.52423        3.28502       -0.86321
H          2.99288       -1.09433        0.87621
H          2.99948       -1.03313       -0.88656
H          2.32001        4.72079        1.18844
H          1.40293        3.21346        1.37715
H          2.99218        3.39690        2.17955
H          4.33042        4.59650       -0.12321
H          0.50708       -1.40438       -0.90919
H          0.49776       -1.46845        0.85305
H          0.49584       -3.78620       -0.11315
H          2.00024       -3.51162        0.79555
H          2.01166       -3.44831       -0.97991
