24
2-ISOPROPYL-1-PENTENE.gamout	Energy:    -314.0162454
C          0.13018       19.11451        0.77612
C          1.36479       19.99467        0.57480
C          1.10664       21.19212       -0.36009
C          2.32079       22.08168       -0.58433
C          2.43126       23.38626        0.19909
C          3.27138       21.72899       -1.46221
C          1.38535       24.41489       -0.27174
C          2.35337       23.18595        1.72235
H          0.34679       18.26382        1.44228
H         -0.70288       19.68299        1.22427
H         -0.23194       18.70345       -0.18188
H          2.18998       19.39206        0.15689
H          1.72197       20.35995        1.55263
H          0.26823       21.78472        0.04577
H          0.75924       20.80359       -1.33352
H          3.42617       23.80843       -0.02724
H          4.16474       22.34173       -1.61958
H          3.19177       20.81356       -2.05833
H          1.51717       25.37401        0.25650
H          1.47270       24.60677       -1.35283
H          0.35627       24.07084       -0.07369
H          2.49678       24.14553        2.24636
H          3.12887       22.48926        2.07874
H          1.37262       22.78959        2.03537
