24
2-METHYL-2-HEPTENE.gamout	Energy:    -314.0225785
C          0.70969        1.44531        1.03498
C          2.01070        1.42162        1.83910
C          2.77084        2.75194        1.79167
C          4.06247        2.80069        2.63546
C          5.13061        1.82557        2.21302
C          6.27333        2.08003        1.54655
C          7.23195        0.96732        1.19756
C          6.71261        3.44888        1.08845
H          0.18138        0.47914        1.08555
H          0.90144        1.66284       -0.02967
H          0.01940        2.22084        1.40901
H          2.65817        0.61158        1.45972
H          1.78861        1.16797        2.89280
H          3.02131        2.98851        0.74096
H          2.09883        3.55851        2.13920
H          4.45039        3.83129        2.61569
H          3.79585        2.59552        3.68982
H          4.93997        0.77704        2.47606
H          7.38915        0.90451        0.10509
H          8.22796        1.14605        1.64319
H          6.87315       -0.01259        1.54712
H          6.82931        3.47098       -0.01036
H          6.01239        4.24833        1.36572
H          7.70285        3.70443        1.50779
