19
2-METHYL-1,5-HEXADIENE.gamout	Energy:    -273.5365726
C          2.28344        2.00154        3.00253
C          1.34463        1.92267        1.81596
C          3.77848        1.83761        2.63939
C          1.41072        3.05739        0.82310
C          0.49498        0.89668        1.66294
C          4.68526        1.94444        3.83371
C          5.50193        0.98436        4.27766
H          2.14878        2.97837        3.50590
H          2.01480        1.22754        3.73963
H          4.06013        2.61639        1.90660
H          3.92670        0.86419        2.14177
H          0.67467        2.93645        0.01431
H          2.40964        3.13531        0.35947
H          1.21967        4.02590        1.31942
H          0.44622        0.08173        2.39175
H         -0.18313        0.83624        0.80601
H          4.64757        2.89837        4.37876
H          6.13229        1.12987        5.15982
H          5.57433        0.01499        3.77193
