13
2-METHACRYLAMIDE.gamout	Energy:    -286.2360055
C          3.31338        1.31323        1.87911
N          3.99199        2.22566        2.64174
O          3.88645        0.48619        1.18886
C          1.80332        1.36372        1.94941
C          1.10491        0.78233        0.75128
C          1.15934        1.81866        3.03586
H          5.00272        2.22803        2.56247
H          3.53710        3.05179        3.00622
H          1.33978        1.35735       -0.16079
H          0.01397        0.76759        0.88822
H          1.46770       -0.24160        0.57042
H          0.06639        1.81073        3.09263
H          1.69144        2.18031        3.92024
