12
2-METHYLFURAN.gamout	Energy:    -268.9880277
C         -5.70087       -0.71216        0.04255
O         -5.16623       -1.80454       -0.56486
C         -6.95770       -0.47542       -0.43230
C         -6.08717       -2.28514       -1.44745
C         -7.21015       -1.50213       -1.40510
C         -5.70640       -3.49213       -2.23101
H         -5.07253       -0.21861        0.77979
H         -7.62521        0.32929       -0.12987
H         -8.11196       -1.64133       -1.99841
H         -5.48563       -4.34834       -1.57075
H         -6.52730       -3.77932       -2.90332
H         -4.80708       -3.30872       -2.84360
