22
2-METHYL-1-PHENYL-1-PROPENE.gamout	Energy:    -387.7410118
C          2.08199        1.35238        3.98368
C          2.55008        1.38528        2.71625
C          3.93177        1.57096        2.22761
C          2.93288        1.45166        5.22569
C          0.60659        1.17216        4.24557
C          4.34329        0.87224        1.07283
C          4.85859        2.45083        2.82380
C          5.63304        1.01335        0.55934
C          6.14996        2.59483        2.30889
C          6.54668        1.87277        1.17941
H          1.81426        1.21991        1.91914
H          2.82302        2.43970        5.70983
H          4.00061        1.28950        5.02620
H          2.60506        0.70462        5.96946
H          0.02365        1.10255        3.31489
H          0.20606        2.01649        4.83623
H          0.41797        0.26030        4.84125
H          3.63500        0.19945        0.58014
H          4.55475        3.05464        3.68073
H          5.92649        0.45166       -0.33201
H          6.84791        3.28746        2.78786
H          7.55667        1.98832        0.77690
