24
2-METHYL-CIS-3-HEPTENE.gamout	Energy:    -314.0192973
C          1.01041       -1.08328       -0.60571
C          1.98926       -0.09793        0.05852
C          2.01765       -0.30701        1.55438
C          1.65214        0.54411        2.52570
C          1.13509        1.95092        2.38869
C          2.04552        2.99745        3.05732
C          1.48975        4.41960        2.98267
C          3.40062       -0.24252       -0.53707
H          0.98437       -0.94239       -1.69941
H         -0.01353       -0.95388       -0.22037
H          1.30978       -2.12810       -0.41178
H          1.63662        0.92505       -0.15686
H          2.38436       -1.29577        1.86514
H          1.75165        0.19185        3.56155
H          0.13370        2.01274        2.85804
H          0.99205        2.21698        1.32832
H          3.04198        2.95907        2.58189
H          2.20363        2.71567        4.11454
H          1.35147        4.74248        1.93659
H          2.16463        5.14403        3.46686
H          0.50804        4.49574        3.48117
H          3.81191       -1.24944       -0.34669
H          4.09890        0.48873       -0.09930
H          3.38868       -0.09086       -1.62957
