15
2-MERCAPTOBENZOTHIAZOLE.gamout	Energy:   -1120.1183776
C         -0.93944       -0.06771        0.64831
C         -0.38098       -1.33520        0.89730
C         -0.15053        0.98508        0.18129
C          0.97424       -1.57539        0.68454
C          1.78864       -0.53131        0.21434
C          1.21043        0.74347       -0.03228
S          2.45663        1.83777       -0.60677
N          3.14431       -0.62391       -0.04190
C          3.62130        0.49563       -0.46392
S          5.32798        0.68043       -0.87367
H         -2.00575        0.09796        0.82224
H         -1.02153       -2.14192        1.26282
H         -0.58811        1.96751       -0.01009
H          1.42210       -2.55329        0.87272
H          5.24790        1.98254       -1.23382
