24
2-METHYL-3-ETHYL-2-PENTENE.gamout	Energy:    -314.0201768
C          3.71769        0.74725        1.94926
C          3.69507        1.87911        0.90880
C          3.21409        3.20838        1.47107
C          4.32067        4.04845        2.09093
C          1.92091        3.60729        1.42365
C          5.05467        4.94076        1.07655
C          1.42853        4.93231        1.96189
C          0.80486        2.78043        0.82550
H          2.70276        0.52544        2.31714
H          4.13504       -0.18061        1.52342
H          4.33188        1.01803        2.82407
H          3.08561        1.56866        0.04638
H          4.71847        2.01364        0.51505
H          5.05549        3.36980        2.56001
H          3.93394        4.67536        2.90876
H          5.88918        5.48346        1.55121
H          5.47355        4.34988        0.24492
H          4.37085        5.68524        0.63746
H          2.22418        5.57816        2.35406
H          0.90328        5.49756        1.17063
H          0.68851        4.77801        2.76882
H          1.11944        1.78930        0.47523
H         -0.00050        2.63000        1.56717
H          0.34026        3.30876       -0.02756
