18
2-METHYL-2-BUTANETHIOL.gamout	Energy:    -595.4918240
C          2.00133        2.68817        2.45624
C          0.60024        2.84013        1.86450
C          3.05330        1.94804        1.59691
C          4.37153        1.84406        2.37582
C          2.57730        0.54631        1.18538
S          3.35972        2.85668       -0.01218
H          2.40283        3.68772        2.70148
H          1.93312        2.14848        3.42039
H         -0.04031        3.43116        2.53876
H          0.63861        3.35374        0.89138
H          0.10395        1.86783        1.71549
H          5.15238        1.35625        1.77307
H          4.74139        2.83905        2.67276
H          4.22763        1.25424        3.29869
H          3.36218        0.01213        0.62732
H          2.33689       -0.04553        2.08499
H          1.67750        0.58258        0.55318
H          3.85367        3.98882        0.54437
