18
2-METHOXYETHYL_ACETATE.gamout	Energy:    -421.6704041
O          0.83286       -0.48864       -0.00159
O         -2.63699        0.43608       -0.00305
O          2.25556        1.25340        0.00694
C         -0.27847        0.41249        0.00070
C         -1.53779       -0.43498       -0.00507
C          2.06589        0.06354        0.00218
C         -3.87955       -0.21478       -0.00836
C          3.13518       -1.00219       -0.00042
H         -0.24462        1.06041        0.89137
H         -0.24172        1.06835       -0.88400
H         -1.54458       -1.10069        0.88413
H         -1.54160       -1.09271       -0.90022
H         -4.01506       -0.85898        0.88478
H         -4.01155       -0.85093       -0.90779
H         -4.66360        0.55679       -0.00645
H          3.02500       -1.64358       -0.88880
H          3.02264       -1.65016        0.88288
H          4.12497       -0.53019        0.00267
