26
2-METHYL-3-ETHYLPENTANE.gamout	Energy:    -315.2353994
C          3.61264        2.44753        1.21167
C          2.41331        2.57927        2.19740
C          1.55312        3.82668        1.88784
C          1.55929        1.29235        2.30184
C          4.46548        1.19655        1.48097
C          4.52277        3.68717        1.22370
C          0.37784        4.07400        2.83840
C          0.85684        0.83976        1.01768
H          3.19741        2.35420        0.18976
H          2.85305        2.73472        3.20378
H          2.20031        4.71685        1.91581
H          1.17803        3.76524        0.84946
H          2.19211        0.47050        2.67437
H          0.80144        1.44465        3.08824
H          5.33216        1.16616        0.80099
H          4.85643        1.19756        2.51391
H          3.90691        0.25956        1.33687
H          4.90910        3.88413        2.23959
H          5.39390        3.53725        0.56484
H          4.01216        4.59794        0.87815
H          0.70918        4.09265        3.89118
H         -0.40744        3.30602        2.75367
H         -0.09682        5.04590        2.62593
H          1.57241        0.59665        0.21486
H          0.17239        1.60878        0.62338
H          0.25585       -0.06597        1.20095
