15
2-METHYL-2-BUTENE.gamout	Energy:    -196.2555183
C          4.33977        0.92616        1.18029
C          2.85520        0.99145        0.96377
C          2.03412        2.05185        1.08059
C          0.55313        1.91714        0.81854
C          2.47684        3.44155        1.46719
H          4.85734        0.58575        0.26516
H          4.78106        1.88989        1.47248
H          4.59194        0.19190        1.96677
H          2.39318        0.03863        0.67215
H         -0.03632        2.21728        1.70426
H          0.23280        2.58100       -0.00542
H          0.27284        0.88594        0.55555
H          1.95025        3.78167        2.37744
H          3.55615        3.51865        1.65601
H          2.22048        4.16700        0.67378
