21
2-METHYL-3-PENTANOL.gamout	Energy:    -311.8582972
C         -1.54969        1.63201       -0.05442
C         -1.16710        0.19069        0.30835
C         -2.23500       -0.79261       -0.18985
C          0.23456       -0.20750       -0.21319
C          1.37814        0.67457        0.31093
C          2.75037        0.27148       -0.23087
O          0.50583       -1.58139        0.05070
H         -0.87132        2.37721        0.38807
H         -1.54323        1.77846       -1.14892
H         -2.56656        1.86592        0.30072
H         -1.12594        0.11952        1.41521
H         -2.32686       -0.74435       -1.28907
H         -1.98040       -1.82846        0.07363
H         -3.22220       -0.55351        0.23819
H          0.21750       -0.13965       -1.31777
H          1.17621        1.72798        0.05742
H          1.37797        0.62107        1.41780
H          2.96667       -0.78326       -0.00468
H          2.79298        0.38720       -1.32711
H          3.55136        0.89180        0.20229
H          0.53760       -1.69337        1.01190
