17
2-METHYLBUTYRIC_ACID.gamout	Energy:    -346.5680134
C         51.82096       30.89335        0.18009
C         50.62522       30.02298       -0.17840
C         49.30551       30.79442       -0.03404
C         50.82790       29.48370       -1.60913
O         52.87513       30.15629        0.59242
O         51.87627       32.09496        0.08063
C         48.96251       31.19496        1.40220
H         50.63303       29.16397        0.51402
H         49.36041       31.69447       -0.66880
H         48.49760       30.16372       -0.44348
H         50.00132       28.80884       -1.88162
H         51.77054       28.92241       -1.69630
H         50.84768       30.30939       -2.33840
H         53.60563       30.77934        0.75197
H         47.99403       31.71827        1.44511
H         48.89221       30.31264        2.06096
H         49.72156       31.87348        1.82208
