15
2-METHYL-1-PROPANETHIOL.gamout	Energy:    -556.2354271
C          1.62359        2.63547        1.37704
S         -0.00264        1.78941        1.22977
C          2.85903        1.82288        0.95595
C          3.10870        0.62012        1.87321
C          4.08912        2.74113        0.90446
H          1.51149        3.51631        0.72431
H          1.73650        3.01538        2.40645
H          0.14141        0.93941        2.27292
H          2.66800        1.44409       -0.06484
H          4.00343        0.06058        1.55583
H          3.27177        0.94410        2.91665
H          2.25907       -0.08027        1.86027
H          4.31755        3.15895        1.90066
H          4.98163        2.19104        0.56450
H          3.93592        3.58771        0.21450
