18
2-METHYL-2-BUTANOL.gamout	Energy:    -272.6051690
C          1.83070        0.87493       -0.11799
O          3.13473        1.39435       -0.39877
C          0.95961        2.10590        0.14725
C          1.31237        0.10958       -1.34556
C          1.89309       -0.07518        1.10311
C          2.46286        0.53968        2.38193
H          3.71139        0.64888       -0.61576
H         -0.06902        1.81462        0.41175
H          1.37575        2.71067        0.96611
H          0.92519        2.73890       -0.75261
H          0.28689       -0.26355       -1.19134
H          1.95361       -0.76291       -1.56149
H          1.31520        0.76328       -2.23163
H          0.88228       -0.47893        1.29137
H          2.51284       -0.94462        0.81199
H          2.60633       -0.22887        3.15820
H          3.43649        1.01328        2.18185
H          1.79758        1.31022        2.80321
