15
2-METHYL-2-PROPANETHIOL.gamout	Energy:    -556.2370696
C          3.69822        2.08747        1.00205
C          2.25507        2.14893        1.52604
C          1.94835        0.92519        2.39990
C          2.02233        3.44897        2.30760
S          1.17807        2.12494       -0.00426
H          4.40343        2.09987        1.84975
H          3.92786        2.95022        0.35661
H          3.87649        1.16602        0.42518
H          2.09855       -0.01078        1.84076
H          0.90849        0.94280        2.76425
H          2.61242        0.91327        3.28238
H          0.98349        3.51989        2.66865
H          2.22723        4.33129        1.68242
H          2.68664        3.48615        3.18918
H         -0.01048        2.18226        0.64199
