24
2-METHYL-1-HEPTENE.gamout	Energy:    -314.0177055
C          1.80640        0.97206        1.65707
C          0.78924        2.06770        1.98856
C          3.18759        1.14746        2.30562
C          6.31953        0.76101        0.84727
C          6.45122        1.54407        1.92740
C          7.72896        1.56746        2.73071
C          5.38016        2.49602        2.42900
C          3.96906        2.38414        1.83912
H          1.39428       -0.00304        1.97267
H          1.92847        0.90665        0.55957
H          1.10442        3.05626        1.61652
H          0.63952        2.15778        3.07857
H         -0.19244        1.84857        1.53728
H          3.78844        0.24417        2.10734
H          3.06797        1.19765        3.40498
H          7.13848        0.11518        0.51653
H          5.40453        0.73233        0.25119
H          8.14330        2.59043        2.78672
H          8.49946        0.90948        2.30193
H          7.54539        1.24907        3.77274
H          5.31768        2.39314        3.52998
H          5.76293        3.52315        2.26898
H          4.02251        2.39918        0.73510
H          3.41262        3.29382        2.12196
