18
2-METHYL-2-PENTENE.gamout	Energy:    -235.5111725
C          2.91309        2.62848        1.95663
C          4.00579        1.88868        2.22404
C          1.46802        2.20641        1.94776
C          5.38691        2.49594        2.17208
C          3.98287        0.42596        2.59635
C          0.79807        2.38789        0.57702
H          3.07934        3.68292        1.69439
H          1.36129        1.15968        2.27286
H          0.91616        2.81392        2.69073
H          5.89922        2.40091        3.14713
H          5.36225        3.56303        1.90357
H          6.02378        1.97233        1.43563
H          4.59017       -0.16548        1.88744
H          4.43346        0.27016        3.59322
H          2.97212       -0.00303        2.61283
H          0.86559        3.43381        0.23267
H          1.28075        1.75800       -0.18826
H         -0.27044        2.11861        0.61427
