30
2-METHYL-1-NONENE.gamout	Energy:    -392.5298471
C          5.62129        4.78470        3.20554
C          4.49221        4.36410        4.15164
C          6.41999        5.99017        3.70471
C          3.68432        3.15916        3.65787
C          2.56607        2.74158        4.62071
C          1.75161        1.50256        4.21246
C          0.64872        1.72371        3.15325
C          1.92754        1.00272        1.03868
C          1.08536        2.04211        1.73683
C          0.69898        3.16756        1.11731
H          6.30426        3.92853        3.05268
H          5.19389        5.01151        2.21143
H          4.91861        4.13736        5.14763
H          3.80949        5.22169        4.30405
H          7.22300        6.26645        3.00208
H          6.89058        5.78360        4.68130
H          5.77289        6.87470        3.83349
H          3.25725        3.39123        2.66780
H          4.36887        2.30243        3.50826
H          3.01874        2.54696        5.61034
H          1.87560        3.59332        4.77035
H          2.43707        0.70018        3.88383
H          1.24909        1.10955        5.11318
H          0.04273        0.79766        3.11370
H         -0.02765        2.51912        3.51000
H          1.42377        0.01932        1.04715
H          2.89844        0.86094        1.54373
H          2.12927        1.27635       -0.00766
H          0.07835        3.91441        1.62219
H          0.98683        3.38107        0.08309
