18
2-METHYL-1-BUTANOL.gamout	Energy:    -272.5968928
C         -2.32613        0.82569       -0.00275
C         -0.90626        1.09434       -0.50848
H         -2.68138       -0.17794       -0.28524
H         -3.03932        1.55503       -0.41979
H         -2.37817        0.90023        1.09678
C          0.17913        0.18426        0.09522
H         -0.64477        2.14616       -0.29240
H         -0.88487        0.99753       -1.61071
C         -0.02441       -1.30076       -0.22963
H         -0.96022       -1.69094        0.19947
H          0.80826       -1.89493        0.17367
H         -0.06032       -1.46361       -1.32195
C          1.56724        0.65373       -0.34548
H          0.14929        0.30016        1.19601
O          2.55202       -0.10852        0.32589
H          1.67513        1.73546       -0.12126
H          1.65363        0.54375       -1.44850
H          3.42007        0.14696       -0.00892
