13
2-METHYL-1,3-BUTADIENE.gamout	Energy:    -195.0259454
C          1.84561        2.17769        1.06813
C          3.27470        2.13371        1.46243
C          4.00435        0.86700        1.07935
C          3.89911        3.13198        2.11293
C          0.96294        3.16594        1.27536
H          1.48909        1.28145        0.54455
H          3.97802        0.71018       -0.01350
H          3.52757       -0.01754        1.53761
H          5.05758        0.88910        1.39575
H          4.95569        3.05638        2.38429
H          3.38549        4.05444        2.39715
H          1.23074        4.09462        1.78861
H         -0.07148        3.07651        0.93327
