10
2-MERCAPTOETHANOL.gamout	Energy:    -552.8444206
S          0.44314       -0.37774        0.41058
C          1.79515        0.83802        0.16732
C          1.30552        2.24711       -0.17388
O          2.37236        3.14992       -0.36868
H         -0.01580       -0.35768       -0.86347
H          2.33589        0.84441        1.12904
H          2.50059        0.48294       -0.59980
H          0.74385        2.21791       -1.12260
H          0.59653        2.58716        0.60686
H          2.79182        3.31431        0.48628
