18
2-METHOXY-2-METHYLPROPANE.gamout	Energy:    -272.5910458
C          1.11088        1.68115        0.17054
C          0.89993        3.05158        0.83530
H          1.51028        3.17300        1.74436
H         -0.15397        3.17706        1.13041
H          1.15902        3.86137        0.13441
C          0.19353        1.53959       -1.04899
H         -0.86738        1.58419       -0.75690
H          0.38295        0.57789       -1.54994
H          0.39606        2.34565       -1.77111
C          0.84287        0.54256        1.16957
H         -0.20302        0.56875        1.51448
H          1.48383        0.61727        2.06244
H          1.02661       -0.43378        0.69390
C          3.54033        1.71850        0.45779
O          2.42998        1.57052       -0.38735
H          3.61776        2.73026        0.90238
H          4.43568        1.55657       -0.16250
H          3.56417        0.98088        1.28341
