20
2-METHYLINDENE.gamout	Energy:    -386.5507081
C          2.96240        2.60021        1.81707
C          2.97241        2.66404        3.23090
C          1.91442        3.24570        3.92167
C          4.24862        2.02626        3.72932
C          1.88519        3.12328        1.09351
C          4.19642        1.93889        1.38201
C          0.82214        3.70801        1.79429
C          0.83390        3.76994        3.19343
C          4.95257        1.59916        2.45414
C          6.28093        0.91103        2.45935
H          1.91721        3.29721        5.01473
H          4.05344        1.16310        4.39366
H          4.86715        2.73043        4.31773
H          1.86997        3.07796        0.00080
H          4.45947        1.75147        0.33815
H         -0.02714        4.12114        1.24277
H         -0.00480        4.23009        3.72299
H          7.05519        1.53256        2.94459
H          6.62178        0.68230        1.43814
H          6.24075       -0.03732        3.02507
