19
2-METHYL-3-HEXYNE.gamout	Energy:    -273.5252759
C         16.92945        0.13893        0.35966
C         18.22384        0.82342        0.28941
C         15.80976        0.84728       -0.42019
C         19.28649        1.40679        0.21721
C         20.59024        2.08597        0.15779
C         20.94566        2.73462        1.50975
C         21.69851        1.12483       -0.31541
H         17.04700       -0.89307       -0.01822
H         16.63270        0.03577        1.41937
H         14.86376        0.28914       -0.33263
H         15.64428        1.86623       -0.03661
H         16.06268        0.92838       -1.48901
H         20.51037        2.89644       -0.59149
H         21.90195        3.27834        1.43846
H         20.16775        3.44587        1.82774
H         21.04440        1.96799        2.29532
H         22.65995        1.65675       -0.40393
H         21.45472        0.68689       -1.29550
H         21.82860        0.29765        0.40133
