20
2-METHYLPIPERIDINE.gamout	Energy:    -290.8089067
C         -1.29649       -0.07519        2.43308
C         -2.19089        0.20956        1.22862
C         -3.32646       -0.81538        1.08889
N         -1.39193        0.20100        0.00265
C         -4.16883       -0.56165       -0.16875
C         -2.15150        0.54494       -1.19382
C         -3.27544       -0.47039       -1.41251
H         -0.50432        0.68729        2.52713
H         -1.87768       -0.06907        3.36884
H         -0.80884       -1.05784        2.32726
H         -2.66996        1.20802        1.38310
H         -2.87502       -1.82240        1.03328
H         -3.95834       -0.79057        1.99302
H         -0.59194        0.82396        0.10413
H         -4.92693       -1.35350       -0.29052
H         -4.72444        0.38745       -0.05009
H         -1.46873        0.55260       -2.05993
H         -2.60283        1.56446       -1.13249
H         -2.82325       -1.45732       -1.61442
H         -3.86495       -0.19202       -2.30241
