27
2-METHYL-1-OCTENE.gamout	Energy:    -353.2728222
C          2.55436        1.29745        0.97841
C          3.96654        1.48552        1.57127
C          4.43401        2.94073        1.68806
C          1.42900        1.93861        1.77899
C          5.84556        3.11894        2.26720
C          0.87199        3.23792        1.25311
C          0.95578        1.36525        2.89504
C          6.98916        2.60681        1.38230
C          8.37427        2.87426        1.97443
H          2.36198        0.21431        0.89469
H          2.54225        1.69350       -0.05279
H          3.99498        1.02028        2.57352
H          4.67430        0.91506        0.94452
H          4.38628        3.42071        0.69151
H          3.72451        3.49132        2.32981
H          5.90049        2.62037        3.25395
H          6.01067        4.19403        2.46475
H          1.66382        3.99847        1.13841
H          0.43354        3.09460        0.24880
H          0.09127        3.64986        1.91057
H          1.34926        0.40972        3.25713
H          0.15961        1.82771        3.48640
H          6.91434        3.08346        0.38694
H          6.87490        1.52213        1.20881
H          8.54641        3.95397        2.12399
H          8.49103        2.38486        2.95649
H          9.17665        2.49802        1.31907
