29
2-METHYLOCTANE.gamout	Energy:    -354.4996335
C          3.10843        1.45964        0.32713
C          2.86397        0.09076       -0.32264
C          4.04677       -0.85026       -0.05567
C          1.54040       -0.55570        0.13299
C          0.26305        0.19298       -0.26214
C         -1.02342       -0.49714        0.20442
C         -2.30352        0.24221       -0.19666
C         -3.59231       -0.44053        0.27321
C         -4.86480        0.30384       -0.13456
H          4.04882        1.90842       -0.03371
H          2.30013        2.17609        0.11302
H          3.18875        1.36406        1.42460
H          2.80013        0.24174       -1.41801
H          4.16110       -1.04369        1.02546
H          3.91096       -1.82408       -0.55454
H          4.99475       -0.41689       -0.41549
H          1.48978       -1.57896       -0.28286
H          1.56761       -0.68323        1.23288
H          0.28103        1.21941        0.14544
H          0.23637        0.30790       -1.36248
H         -1.05533       -1.52712       -0.19863
H         -0.99660       -0.60942        1.30488
H         -2.27186        1.27310        0.20457
H         -2.33041        0.35279       -1.29750
H         -3.62337       -1.47105       -0.12653
H         -3.56459       -0.54910        1.37335
H         -4.94168        0.39524       -1.23155
H         -5.77054       -0.21495        0.21938
H         -4.88368        1.32588        0.28113
