25
2-METHYLTETRALIN.gamout	Energy:    -427.0232062
C          2.00564        2.06975        1.12156
C          0.55359        2.01939        1.60323
C          2.64639        3.43625        1.40877
C          2.86906        0.96842        1.75258
C          4.14033        3.49631        1.14446
C          4.27905        0.94977        1.15513
C          4.91775        2.32371        1.05528
C          4.77292        4.74453        1.01445
C          6.30227        2.43764        0.84204
C          6.14747        4.84596        0.80243
C          6.91932        3.68188        0.71626
H          2.01236        1.91380        0.02502
H          0.49818        2.14534        2.69837
H          0.08033        1.05558        1.35360
H         -0.05091        2.81961        1.14498
H          2.46158        3.68793        2.47201
H          2.14086        4.22527        0.82534
H          2.39550       -0.01874        1.61666
H          2.92262        1.14156        2.84416
H          4.23309        0.50836        0.14101
H          4.93482        0.28171        1.73914
H          4.16739        5.65418        1.08219
H          6.90439        1.52564        0.77457
H          6.61577        5.82914        0.70424
H          7.99853        3.74483        0.55182
