14
2-METHYLPYRIDINE.gamout	Energy:    -287.2136576
C          3.34407       -4.03849        0.01093
C          3.29637       -2.53280       -0.05486
C          4.46404       -1.75726       -0.15385
N          2.07863       -1.96984       -0.01394
C          4.35612       -0.36644       -0.21134
C          3.08653        0.21203       -0.16845
C          1.98199       -0.64137       -0.06921
H          4.37354       -4.42411       -0.02578
H          2.86722       -4.39348        0.93911
H          2.77420       -4.47364       -0.82621
H          5.44324       -2.24184       -0.18527
H          5.25204        0.25610       -0.28866
H          2.95009        1.29532       -0.21028
H          0.96721       -0.22479       -0.03266
