35
2-METHYLDECANE.gamout	Energy:    -433.0121589
C         -2.07559       -0.22748       -2.23178
C         -0.93256       -0.95701       -1.51753
C         -3.32373       -1.09188       -2.44359
C          0.29928       -0.08002       -1.27022
C         -4.51988       -0.37544       -3.10267
C          1.45309       -0.80738       -0.57228
C          2.67706        0.07644       -0.31251
C         -5.78327       -1.24342       -3.03075
C         -4.23222        0.04469       -4.55121
C          3.83737       -0.65313        0.37378
C          5.05363        0.23763        0.63402
H         -1.70668        0.14967       -3.20230
H         -2.35443        0.66939       -1.64675
H         -0.63692       -1.84209       -2.11180
H         -1.29781       -1.35407       -0.55157
H         -3.06114       -1.98075       -3.04917
H         -3.64952       -1.48420       -1.46262
H          0.00502        0.79941       -0.66699
H          0.65591        0.32635       -2.23558
H         -4.71139        0.54522       -2.51763
H          1.75601       -1.67870       -1.18302
H          1.09447       -1.22537        0.38738
H          2.37754        0.94491        0.30421
H          3.03075        0.49971       -1.27195
H         -5.65346       -2.18031       -3.60060
H         -6.65681       -0.71858       -3.45173
H         -6.02502       -1.51899       -1.99081
H         -3.37427        0.73129       -4.62347
H         -4.00917       -0.83615       -5.17916
H         -5.10203        0.55653       -4.99540
H          3.48120       -1.08116        1.32916
H          4.13691       -1.51728       -0.24742
H          5.86741       -0.32040        1.12526
H          4.79410        1.09023        1.28418
H          5.45476        0.65206       -0.30669
