20
2-METHYL-5-ETHYLPYRIDINE.gamout	Energy:    -365.7296220
C          1.79748        2.17143       -0.92852
C          2.71389        1.66472        0.19706
C          2.97359        0.17675        0.13516
C          3.96106       -0.37747       -0.69002
C          2.21022       -0.73532        0.88333
C          4.13315       -1.76127       -0.73325
N          2.36471       -2.05767        0.84939
C          3.30911       -2.58145        0.05457
C          3.44215       -4.08368        0.05684
H          1.63700        3.25909       -0.84911
H          2.23162        1.96486       -1.92044
H          0.81241        1.67867       -0.88974
H          2.26164        1.91352        1.17204
H          3.67562        2.20492        0.15353
H          4.59982        0.27289       -1.29679
H          1.42772       -0.35615        1.55545
H          4.90301       -2.20441       -1.37037
H          3.69173       -4.44421        1.06829
H          2.48330       -4.55124       -0.22029
H          4.21839       -4.43117       -0.64068
