18
2-METHYLBENZOFURAN.gamout	Energy:    -422.4362639
C         -1.85823        1.07743       -1.92016
C         -2.97966        0.63499       -1.04956
C         -3.19784       -0.49946       -0.32342
O         -4.02797        1.51412       -0.92229
C         -4.48204       -0.33750        0.31788
C         -4.94234        0.93156       -0.09509
C         -5.28692       -1.10303        1.17947
C         -6.16033        1.47481        0.30557
C         -6.51088       -0.57577        1.59200
C         -6.94290        0.69532        1.16177
H         -2.20701        1.26814       -2.94936
H         -1.41207        2.01475       -1.54647
H         -1.07513        0.30745       -1.95427
H         -2.52283       -1.35027       -0.25390
H         -4.96167       -2.08987        1.51893
H         -6.48055        2.46093       -0.03667
H         -7.14960       -1.15740        2.26190
H         -7.90756        1.07841        1.50425
