23
2-METHYLHEXANE.gamout	Energy:    -275.9856567
C          2.72123        1.26590        0.88530
C          1.66154        1.93779        1.78396
C          3.98563        0.73744        1.58012
C          1.04658        0.96020        2.79484
C          0.56933        2.58868        0.92461
C          4.92542        1.81943        2.12701
C          6.20069        1.25317        2.75578
H          3.02571        1.98804        0.10486
H          2.23397        0.43237        0.34524
H          2.15726        2.74566        2.35475
H          3.70812        0.05132        2.40096
H          4.54987        0.11808        0.85921
H          1.80011        0.53441        3.47602
H          0.55187        0.11862        2.27799
H          0.28606        1.45842        3.41878
H          0.05467        1.83325        0.30465
H         -0.19524        3.08184        1.54761
H          0.98781        3.34681        0.24220
H          5.19664        2.51152        1.30814
H          4.39682        2.43489        2.87683
H          6.87110        2.05530        3.10517
H          5.97160        0.61057        3.62295
H          6.76546        0.63844        2.03391
