16
2-METHYLTHIACYCLOPENTANE.gamout	Energy:    -594.2924024
C          2.33338       -0.92327        5.11892
C          1.81960        0.20535        4.23059
C          2.05541       -0.00461        2.72804
S          2.64250        1.83105        4.63305
C          1.96669        1.36522        2.05166
C          2.86189        2.30957        2.86150
H          2.14666       -0.71691        6.18473
H          3.41782       -1.06623        4.98646
H          1.82184       -1.86914        4.86909
H          0.73963        0.34222        4.41105
H          3.06140       -0.43474        2.57468
H          1.32614       -0.72276        2.31524
H          2.27423        1.32987        0.99285
H          0.92423        1.72616        2.07921
H          2.58939        3.36815        2.73544
H          3.92150        2.19341        2.58183
