20
2-METHYL_CYCLOHEXANONE.gamout	Energy:    -348.7223987
C          0.98197        0.17979        0.30832
C          2.49978        0.05001        0.07275
C          2.96710        1.07773       -0.96495
C          2.92480       -1.38182       -0.33053
O          3.49376        2.11911       -0.63893
C          2.71132        0.72033       -2.42451
C          2.56967       -1.73532       -1.78104
C          3.15818       -0.71426       -2.76217
H          0.71634        1.20684        0.60488
H          0.66566       -0.49778        1.11806
H          0.39196       -0.07559       -0.58625
H          3.00873        0.33134        1.00873
H          2.47052       -2.10652        0.36719
H          4.01809       -1.47534       -0.20059
H          3.20992        1.47376       -3.05217
H          1.62306        0.81097       -2.60231
H          1.47258       -1.78063       -1.90590
H          2.94463       -2.74477       -2.02058
H          4.26145       -0.76623       -2.72278
H          2.87362       -0.96135       -3.79844
