19
2-METHYL-2,4-HEXADIENE.gamout	Energy:    -273.5546730
C         33.98486       29.90036       -0.01337
C         32.78350       29.27493       -0.00751
C         35.30811       29.29221       -0.00002
C         31.50070       30.06712       -0.02399
C         32.60002       27.77914        0.01534
C         36.46017       29.99197       -0.00740
C         37.83678       29.39934        0.00566
H         33.97967       30.99771       -0.03028
H         35.36899       28.19773        0.01709
H         31.68479       31.15196       -0.04004
H         30.88629       29.81040       -0.90680
H         30.87944       29.83826        0.86178
H         33.54620       27.22170        0.02582
H         32.01762       27.47229        0.90316
H         32.02085       27.44481       -0.86460
H         36.40404       31.08918       -0.02440
H         37.80708       28.29821        0.02304
H         38.41752       29.70981       -0.88218
H         38.41311       29.73773        0.88616
