21
2-METHYLNAPHTHALENE.gamout	Energy:    -424.6284428
C          4.66029        1.10891        1.97629
C          5.23105        0.86109        0.60055
C          3.37914        0.70806        2.31230
C          5.43547        1.78983        2.96021
C          2.82220        0.96033        3.59707
C          4.93175        2.05218        4.21515
C          3.61475        1.64960        4.57556
C          1.50415        0.55087        3.94943
C          3.05826        1.90207        5.86096
C          0.99386        0.80999        5.20429
C          1.77782        1.49235        6.17028
H          4.75662       -0.00591        0.11591
H          5.07421        1.73344       -0.05914
H          6.31682        0.67890        0.64018
H          2.76447        0.17937        1.57638
H          6.45139        2.10715        2.70537
H          5.54397        2.57592        4.95530
H          0.89988        0.02479        3.20446
H          3.66621        2.42846        6.60271
H         -0.01957        0.49005        5.46180
H          1.36043        1.69065        7.16118
