21
2-METHYL-2-HEXENE.gamout	Energy:    -274.7676195
C          1.28113        1.16684        4.66029
C          1.76603        1.89608        5.68301
C          1.87279        0.94253        3.29579
C          1.00389        2.00562        6.98250
C          3.07034        2.65411        5.66006
C          0.98997        1.47929        2.15344
C          1.55449        1.18095        0.76356
H          0.31370        0.67101        4.82119
H          2.01213       -0.14570        3.14173
H          2.87665        1.39086        3.21726
H          0.06137        1.43854        6.95484
H          0.76399        3.05919        7.21602
H          1.60574        1.62995        7.83027
H          3.60950        2.57204        4.70650
H          2.89870        3.72739        5.85940
H          3.74338        2.29562        6.46009
H         -0.02220        1.04438        2.24306
H          0.86394        2.56926        2.28120
H          1.65906        0.09511        0.59688
H          0.90338        1.57775       -0.03228
H          2.55297        1.63141        0.63150
