19
2-NAPHTHOL.gamout	Energy:    -460.5040301
C          5.87833        0.64159        3.28683
O          7.12104        0.73137        3.82837
C          4.72718        0.49862        4.04067
C          5.79916        0.70185        1.86740
C          3.45233        0.40995        3.41571
C          4.57718        0.61821        1.24108
C          3.36989        0.47064        1.98353
C          2.24811        0.26248        4.16097
C          2.09519        0.38206        1.35969
C          1.02591        0.17939        3.52466
C          0.94536        0.23950        2.11035
H          7.05621        0.67953        4.79137
H          4.78854        0.45240        5.13335
H          6.72603        0.81515        1.30098
H          4.52317        0.66514        0.14964
H          2.30445        0.21574        5.25243
H          2.04085        0.42906        0.26808
H          0.11192        0.06628        4.11412
H         -0.02837        0.17278        1.61840
