25
2-NONYNE.gamout	Energy:    -352.0372674
C          4.42518        1.63816        2.10987
C          5.07025        2.95087        1.65265
C          6.43822        3.23491        2.30820
C          3.10261        1.28898        1.41277
C          7.48503        2.26206        1.98030
C          1.93380        2.23715        1.70886
C          8.34517        1.45391        1.69639
C          0.62222        1.80152        1.05247
C          9.38702        0.48664        1.35982
H          4.26101        1.67762        3.20370
H          5.14405        0.81833        1.94006
H          4.40713        3.80251        1.88162
H          5.19655        2.93753        0.55520
H          6.77957        4.24121        2.00585
H          6.31372        3.27758        3.40637
H          3.26742        1.24630        0.31925
H          2.80963        0.26604        1.71168
H          1.79311        2.30438        2.80383
H          2.18469        3.25882        1.37274
H         -0.19985        2.49830        1.28346
H          0.71932        1.75536       -0.04565
H          0.31579        0.79912        1.39678
H         10.38376        0.95907        1.34335
H          9.42307       -0.33833        2.09123
H          9.21593        0.04081        0.36543
