17
2-NORBORNENE.gamout	Energy:    -272.3416538
C          0.03588       -1.12714       -0.31696
C          0.03560        1.12715       -0.31697
C          0.02119       -0.00000       -1.37490
C         -1.26615       -0.78000        0.48544
C         -1.26635        0.77970        0.48543
C          1.20220       -0.67155        0.54995
C          1.20202        0.67186        0.54995
H          0.07889       -2.16230       -0.68478
H          0.07835        2.16232       -0.68480
H          0.91760        0.00011       -2.01350
H         -0.88404       -0.00012       -2.00509
H         -1.24650       -1.20852        1.49882
H         -2.15429       -1.18328       -0.02761
H         -2.15458        1.18274       -0.02763
H         -1.24681        1.20823        1.49881
H          1.83494       -1.33482        1.14458
H          1.83460        1.33529        1.14457
