30
2-NONANOL.gamout	Energy:    -429.6265864
C         68.95943       30.04671       -0.04570
C         67.65074       29.24873       -0.07596
C         67.86651       27.73402       -0.09776
C         68.75935       31.56487       -0.02025
C         66.59215       26.88961       -0.02326
C         70.06682       32.36307        0.01738
C         65.68770       27.02160       -1.24872
O         67.02307       25.54491        0.14477
C         69.86754       33.88190        0.04703
C         71.17679       34.67181        0.08910
H         69.54815       29.74003        0.83883
H         69.57486       29.77181       -0.92271
H         67.05959       29.56403       -0.95458
H         67.04409       29.52068        0.80860
H         68.49425       27.43529        0.75952
H         68.42603       27.43614       -1.00309
H         68.16927       31.87244       -0.90402
H         68.14407       31.83678        0.85824
H         66.01943       27.21872        0.87172
H         70.65420       32.05482        0.90282
H         70.68574       32.09260       -0.85906
H         64.79984       26.37232       -1.15070
H         65.32170       28.05190       -1.38299
H         66.22962       26.71979       -2.16017
H         66.24150       24.97860        0.18406
H         69.27890       34.18851       -0.83718
H         69.24929       34.14905        0.92402
H         70.99536       35.75870        0.11082
H         71.76982       34.41564        0.98356
H         71.80571       34.45804       -0.79211
