22
2-OCTYNE.gamout	Energy:    -312.7825882
C          5.52724        0.79597        1.30190
C          4.51880        1.95894        1.36726
C          3.07401        1.50760        1.14060
C          6.92000        1.19723        1.51383
C          2.05203        2.64762        1.19984
C          8.07075        1.53941        1.69077
C          0.61156        2.18729        0.97115
C          9.46040        1.93721        1.90224
H          5.44162        0.29411        0.31990
H          5.25151        0.03066        2.05131
H          4.60798        2.45549        2.34958
H          4.79649        2.71722        0.61411
H          2.99886        1.00402        0.15800
H          2.80781        0.74088        1.89279
H          2.12665        3.15094        2.18135
H          2.31887        3.41296        0.44803
H         -0.09698        3.02997        1.01822
H          0.30069        1.44950        1.73047
H          0.49381        1.71024       -0.01690
H          9.56610        2.58124        2.79151
H          9.85621        2.49725        1.03814
H         10.10994        1.05798        2.05165
