13
2-PENTYNE.gamout	Energy:    -195.0133536
C          4.51046        0.76790        0.95524
C          3.05169        0.85746        1.06531
C          1.84605        0.95302        1.16227
C          5.23642        2.08630        1.27466
C          0.39374        1.06187        1.27776
H          4.87667       -0.02677        1.63065
H          4.77745        0.44007       -0.06598
H          5.01871        2.41786        2.30208
H          6.32675        1.96096        1.17712
H          4.91920        2.88737        0.58861
H         -0.10060        0.91670        0.30225
H          0.09499        2.05427        1.65628
H         -0.01264        0.30663        1.97180
