18
2-PENTANETHIOL.gamout	Energy:    -595.4910113
C         34.94860       30.03958       -0.06910
C         33.62975       29.24955       -0.06115
C         34.78018       31.56266        0.00365
C         32.75821       29.47714       -1.29545
S         34.09240       27.46125        0.12300
C         36.11632       32.30357        0.08824
H         35.55688       29.71024        0.79207
H         35.52281       29.77130       -0.97521
H         33.06479       29.52849        0.84459
H         34.22042       31.92258       -0.87724
H         34.16357       31.81781        0.88529
H         31.83510       28.87793       -1.24697
H         32.45751       30.53533       -1.37903
H         33.29699       29.19556       -2.21470
H         32.83361       26.96168        0.09975
H         35.96969       33.39454        0.13919
H         36.68559       32.00086        0.98336
H         36.74988       32.09436       -0.79054
