22
2-PHENYL-1-BUTENE.gamout	Energy:    -387.7356192
C          1.20799        3.98467        1.93822
C          1.82730        2.60875        2.10508
C          1.07884        1.55882        2.48857
C          3.28523        2.45413        1.82103
C          1.24030        4.50821        0.49463
C          3.78612        1.28459        1.21490
C          4.20890        3.46481        2.15314
C          5.15153        1.12191        0.97314
C          5.57582        3.30328        1.91322
C          6.05510        2.13023        1.32335
H          1.72454        4.70747        2.59527
H          0.16533        3.94725        2.29338
H          1.50949        0.56606        2.64345
H          0.00726        1.66840        2.67935
H          0.77875        5.50690        0.42756
H          0.68866        3.83407       -0.18057
H          2.27164        4.58813        0.11618
H          3.08826        0.50142        0.90919
H          3.86052        4.38649        2.62455
H          5.51071        0.20529        0.49700
H          6.27068        4.10063        2.19106
H          7.12397        2.00575        1.13058
