19
2-PHENYLETHANOL.gamout	Energy:    -385.5678978
C          6.30475        1.71037       -0.93418
C          6.73771        0.44249       -0.53491
C          4.96902        2.08401       -0.75643
C          4.07291        1.18079       -0.17649
C          4.51141       -0.08562        0.22133
C          5.84992       -0.47601        0.04968
C          6.31266       -1.85927        0.44667
C          6.16313       -2.88638       -0.67675
O          6.62164       -4.13143       -0.19273
H          7.01476        2.41140       -1.38172
H          7.78664        0.16159       -0.67161
H          4.62936        3.07655       -1.06430
H          3.02751        1.46494       -0.02753
H          3.80421       -0.78255        0.68195
H          7.37307       -1.83977        0.74766
H          5.74040       -2.22531        1.31521
H          5.09906       -2.93218       -0.98953
H          6.74412       -2.54837       -1.56018
H          6.53282       -4.78719       -0.89550
