22
2-PHENYL_PROPANOL.gamout	Energy:    -424.8223674
C          1.52580        1.92708        4.65374
C          1.55398        2.90506        3.46762
C          0.13418        3.11539        2.92742
C          2.57245        2.47574        2.41554
O          2.76982        1.95957        5.32185
C          3.93824        2.74023        2.62381
C          2.20561        1.79350        1.24371
C          4.90181        2.33439        1.69840
C          3.16870        1.38631        0.31316
C          4.52109        1.65451        0.53629
H          1.29253        0.91158        4.27349
H          0.70094        2.22005        5.33706
H          1.90567        3.86672        3.88257
H         -0.33649        2.16656        2.62003
H          0.13499        3.78391        2.05297
H         -0.51213        3.56328        3.69908
H          2.83202        1.19085        5.90127
H          4.24239        3.26360        3.53284
H          1.15461        1.57188        1.04436
H          5.95767        2.54981        1.88580
H          2.85645        0.85945       -0.59313
H          5.27421        1.33819       -0.19066
