25
2-PHENYLBUTAN-1-OL.gamout	Energy:    -464.0777484
O         -1.06189       -3.06162        0.30784
C         -1.33872       -0.68948        0.49054
C         -2.11515        0.42411        1.22431
C          0.15451       -0.41045        0.36625
C         -1.60457       -2.05550        1.13621
C         -2.04902        1.78959        0.53843
C          0.78211       -0.42664       -0.88844
C          0.94544       -0.14004        1.49598
C          2.15120       -0.17247       -1.01672
C          2.31432        0.11498        1.37450
C          2.92321        0.10262        0.11534
H         -1.74365       -0.75989       -0.53479
H         -1.74470        0.51183        2.26161
H         -3.17035        0.10868        1.31084
H         -2.70040       -2.18317        1.26266
H         -1.15883       -2.07794        2.15268
H         -1.01486        2.16469        0.48462
H         -2.64939        2.53626        1.08292
H         -2.43733        1.73648       -0.49268
H          0.18781       -0.65161       -1.77860
H          0.48968       -0.12537        2.49055
H          2.61660       -0.19194       -2.00625
H          2.90875        0.32472        2.26837
H          3.99317        0.30601        0.01839
H         -1.13362       -3.90904        0.76361
