12
2-PROPANOL.gamout	Energy:    -194.0899008
C          0.61724        1.20430        2.00012
C          2.07453        1.65748        2.10509
C          2.94511        1.09672        0.98752
O          2.17835        3.07303        2.03167
H          0.17464        1.56289        1.05619
H          0.53129        0.10596        2.03336
H          0.01650        1.60820        2.83386
H          2.48325        1.29777        3.07485
H          2.95269       -0.00431        1.00485
H          2.56848        1.43246        0.00734
H          3.97942        1.45797        1.09494
H          1.59166        3.45324        2.69847
