18
2-PROPYLTHIOPHENE.gamout	Energy:    -670.3937906
S          2.74638       -1.53359       -0.74189
C          1.81396       -1.38769        1.92350
C          2.63757       -0.89072        3.12592
C          2.11175       -0.67054        0.63275
C          2.31657       -1.64167        4.41862
C          1.95969        0.66340        0.32593
C          2.35314        0.98929       -1.00835
C          2.80197       -0.10089       -1.71044
H          0.73758       -1.28643        2.15688
H          1.98742       -2.46943        1.79130
H          3.71100       -0.98828        2.88688
H          2.45645        0.18940        3.26552
H          2.52200       -2.72096        4.31716
H          2.91848       -1.26631        5.26170
H          1.25344       -1.53392        4.69351
H          1.57285        1.39719        1.03657
H          2.30266        1.99538       -1.42958
H          3.16021       -0.14444       -2.73825
