12
2-PROPANETHIOL.gamout	Energy:    -516.9806514
C          3.44616        1.17115        1.73718
C          2.15331        1.61154        1.04956
C          0.90047        1.10192        1.76292
S          2.10102        3.44538        0.78933
H          4.33257        1.52459        1.18985
H          3.50039        1.56890        2.76498
H          3.49490        0.07004        1.80364
H          2.15290        1.23359        0.01244
H          0.84592        1.49609        2.79209
H         -0.01461        1.40718        1.23414
H          0.91204       -0.00030        1.82911
H          2.10824        3.77555        2.10376
