13
2-PYRROLIDONE.gamout	Energy:    -286.2540413
N         -0.03253        1.08270        0.04574
C         -0.83245       -0.03175        0.00029
C          0.10907       -1.23388       -0.15169
C          1.49968       -0.67862        0.18984
C          1.38736        0.83179       -0.12233
O         -2.04389       -0.04365        0.04770
H         -0.44776        2.00749        0.01987
H         -0.22390       -2.06781        0.48210
H          0.04227       -1.57431       -1.20025
H          1.70765       -0.81653        1.26313
H          2.31775       -1.15547       -0.36954
H          1.72558        1.06071       -1.15260
H          1.99397        1.44571        0.56406
