25
2-TERT-BUTYLPHENOL.gamout	Energy:    -464.0867428
O         -0.01339        2.18166        0.00909
C         -1.61125       -0.23997       -0.01999
C         -0.06698       -0.21959       -0.00154
C         -2.16433       -1.67875       -0.03165
C         -2.13314        0.47114       -1.29267
C         -2.16319        0.46206        1.24491
C          0.66565        0.99509        0.01213
C          0.69442       -1.40015        0.00269
C          2.06721        0.99800        0.02850
C          2.09403       -1.40603        0.01894
C          2.78702       -0.19735        0.03186
H         -1.86261       -2.24731        0.86246
H         -3.26544       -1.64714       -0.04449
H         -1.84220       -2.24148       -0.92240
H         -1.75699       -0.02990       -2.19972
H         -3.23523        0.43720       -1.32060
H         -1.82147        1.52310       -1.32689
H         -3.26567        0.42809        1.24646
H         -1.80887       -0.04552        2.15710
H         -1.85234        1.51365        1.29365
H          0.18085       -2.36135       -0.00704
H          2.59353        1.95907        0.03856
H          2.63291       -2.35672        0.02136
H          3.87990       -0.17565        0.04463
H          0.62329        2.90876        0.01965
