18
2-THIAHEXANE.gamout	Energy:    -595.4871776
S         -2.30820       -1.23591       -0.59076
C          0.36416       -0.49777       -0.59900
C          1.59984        0.08437        0.09937
C         -0.87274       -0.52193        0.29867
C          2.84307        0.10857       -0.79137
C         -3.56672       -1.11893        0.71882
H          0.58398       -1.52539       -0.94078
H          0.14267        0.08835       -1.50901
H          1.37281        1.10907        0.44662
H          1.80926       -0.50410        1.01136
H         -0.68036       -1.12448        1.20376
H         -1.12869        0.49977        0.63042
H          3.71201        0.52908       -0.25972
H          2.67816        0.71885       -1.69541
H          3.11642       -0.90669       -1.12531
H         -3.74029       -0.07340        1.02050
H         -3.28612       -1.71344        1.60322
H         -4.50159       -1.52470        0.30511
