29
3,3,4-TRIMETHYLHEXANE.gamout	Energy:    -354.4871412
C          4.23854        1.89050        1.87685
C          2.88833        2.67093        2.11233
C          1.99056        1.90999        3.12877
C          3.21086        4.08370        2.64743
C          2.15454        2.84291        0.76542
C          5.01269        1.56968        3.17786
C          4.08195        0.61446        1.03046
C          0.56967        2.44654        3.33802
C          6.51076        1.31872        2.97444
H          4.87168        2.58649        1.29256
H          1.91594        0.85349        2.81694
H          2.50237        1.89703        4.10598
H          3.73744        4.05745        3.61367
H          2.29281        4.67478        2.79054
H          3.84580        4.63606        1.93448
H          1.31101        3.54513        0.85706
H          2.83489        3.25042       -0.00128
H          1.74953        1.89243        0.38441
H          4.56023        0.68618        3.66292
H          4.89963        2.39616        3.89728
H          3.37064       -0.09437        1.48663
H          5.04520        0.08945        0.93899
H          3.73641        0.82476        0.00769
H          0.05367        1.86478        4.11933
H         -0.04300        2.37685        2.42510
H          0.56327        3.49983        3.66259
H          7.01006        1.10469        3.93369
H          7.00672        2.19959        2.53216
H          6.70644        0.46222        2.30902
