29
3,3-DIMETHYLHEPTANE.gamout	Energy:    -354.4943257
C          3.27920        1.80140        3.78184
C          4.77513        1.97242        4.16823
C          5.65853        1.13328        3.20454
C          4.92655        1.46047        5.61527
C          5.17543        3.46081        4.12124
C          2.82793        2.25826        2.38909
C          7.16242        1.09246        3.49540
C          1.32486        2.05251        2.16015
C          0.84871        2.49318        0.77522
H          3.01970        0.73247        3.89941
H          2.67341        2.34003        4.53440
H          5.26996        0.09791        3.20015
H          5.51636        1.51363        2.17842
H          4.25107        2.00617        6.29506
H          5.95065        1.59140        5.99932
H          4.67500        0.38863        5.68536
H          4.48830        4.07152        4.73105
H          5.15747        3.86179        3.09493
H          6.19059        3.61723        4.51906
H          3.38157        1.70994        1.60618
H          3.06617        3.32688        2.24079
H          7.68360        0.48760        2.73545
H          7.38736        0.64407        4.47613
H          7.61520        2.09701        3.47604
H          1.08074        0.98483        2.31158
H          0.76162        2.60362        2.93581
H          1.04553        3.56536        0.60371
H         -0.23404        2.33088        0.64741
H          1.36390        1.93388       -0.02450
