24
3,3-DIMETHYL-2-ETHYL-1-BUTENE.gamout	Energy:    -314.0123108
C          0.27175       36.46352       -1.17068
C          1.31036       36.07596       -0.10471
C          1.98183       37.27050        0.56776
C          3.41492       37.63458        0.13585
C          1.30692       37.94572        1.51067
C          4.37493       36.50316        0.58084
C          3.49485       37.78902       -1.40093
C          3.89930       38.94923        0.77308
H         -0.19088       35.56645       -1.61487
H         -0.53096       37.07617       -0.73044
H          0.72357       37.04824       -1.98698
H          2.06397       35.41499       -0.56162
H          0.80824       35.47032        0.66854
H          1.70529       38.82500        2.01885
H          0.30175       37.63145        1.81126
H          5.40938       36.73604        0.27744
H          4.35956       36.38388        1.67606
H          4.11117       35.53271        0.13211
H          4.52650       38.03280       -1.70405
H          2.83942       38.60164       -1.75387
H          3.20815       36.86693       -1.92976
H          3.92937       38.88566        1.87212
H          4.92024       39.18163        0.42908
H          3.25235       39.79747        0.49819
