32
3,3-DIETHYLHEXANE.gamout	Energy:    -393.7397910
C         -0.16232       44.91659        0.37523
C          1.35023       44.85082        0.14464
C          2.00467       46.23807        0.13157
C          3.55866       46.31696        0.01707
C          3.88178       47.82373       -0.21244
C          4.15930       45.82437        1.37483
C          4.07724       45.44322       -1.15687
C          5.34786       48.25399       -0.32175
C          5.60660       45.31637        1.41246
C          3.52166       45.76031       -2.55000
H         -0.61649       43.91242        0.36329
H         -0.40153       45.37894        1.34805
H         -0.66288       45.51654       -0.40410
H          1.54448       44.33506       -0.81113
H          1.80400       44.21854        0.92776
H          1.71236       46.77292        1.05466
H          1.55701       46.81928       -0.69459
H          3.35620       48.15239       -1.12586
H          3.41132       48.39108        0.61112
H          3.52566       45.00805        1.76080
H          4.04884       46.64660        2.10503
H          5.17577       45.51866       -1.20136
H          3.86982       44.38427       -0.92290
H          5.40965       49.32418       -0.57945
H          5.89642       48.11954        0.62302
H          5.89151       47.70144       -1.10535
H          5.88674       45.06388        2.44882
H          6.33513       46.05620        1.04989
H          5.74244       44.40132        0.81435
H          3.93446       45.06143       -3.29594
H          2.42431       45.67442       -2.59714
H          3.78639       46.77775       -2.87952
