16
3,3-DIMETHYL-1-BUTYNE.gamout	Energy:    -234.2582551
C          3.28831        1.92980        1.22805
C          1.93948        1.98521        1.82495
C          1.40070        3.43176        1.72849
C          2.01811        1.55551        3.30873
C          1.00174        1.02649        1.05433
C          4.39519        1.88380        0.73532
H          1.33883        3.75982        0.67923
H          0.39195        3.49220        2.16942
H          2.05574        4.13378        2.26740
H          1.01490        1.59179        3.76416
H          2.40432        0.52882        3.40329
H          2.68186        2.22338        3.87945
H          0.93499        1.30885       -0.00784
H          1.36571       -0.01116        1.10943
H         -0.01227        1.06093        1.48564
H          5.37524        1.84310        0.29896
