18
3,3-DIMETHYL-1-BUTENE.gamout	Energy:    -235.5030417
C          3.28389        2.62604        2.31058
C          1.89188        2.08197        2.03415
C          1.26828        2.91084        0.88746
C          2.03102        0.61214        1.57489
C          0.97810        2.14876        3.26784
C          3.76315        3.12428        3.45404
H          3.95431        2.59019        1.44024
H          0.27674        2.51347        0.61234
H          1.14453        3.96519        1.18283
H          1.90101        2.88626       -0.01534
H          1.04700        0.19183        1.30732
H          2.68307        0.53018        0.68951
H          2.46538       -0.01279        2.37180
H         -0.01983        1.74694        3.02805
H          1.38332        1.55721        4.10459
H          0.84553        3.18532        3.61737
H          4.79329        3.48605        3.52171
H          3.16177        3.19500        4.36463
