29
3,3-DIETHYLPENTANE.gamout	Energy:    -354.4832075
C          3.18169        3.78983        2.58834
C          2.25329        2.56828        2.85244
C          1.79983        2.62560        4.34405
C          3.00103        1.22492        2.62310
C          0.96937        2.60802        1.96189
C          3.87596        3.90774        1.22689
C          0.91246        3.79974        4.77395
C          4.25670        0.96398        3.46276
C          1.02709        2.06052        0.52886
H          2.59222        4.70795        2.75223
H          3.96034        3.80045        3.37150
H          1.26585        1.68404        4.56880
H          2.69757        2.62514        4.98445
H          2.28163        0.40390        2.79891
H          3.28080        1.14707        1.56023
H          0.17965        2.04382        2.49104
H          0.60951        3.65090        1.92317
H          4.47638        3.01720        0.98028
H          3.16437        4.06733        0.40278
H          4.56280        4.77045        1.22772
H         -0.04097        3.83243        4.22318
H          0.66424        3.71433        5.84464
H          1.40926        4.77361        4.63614
H          4.70436       -0.00569        3.18901
H          5.03133        1.73198        3.30445
H          4.04452        0.92652        4.54286
H          0.05061        2.20750        0.03846
H          1.78242        2.55971       -0.09570
H          1.23919        0.98025        0.50177
