23
3,3-DIMETHYLPENTANE.gamout	Energy:    -275.9828608
C          3.31160        2.62973        2.52917
C          2.45120        1.67183        1.66036
C          1.63528        0.67207        2.52513
C          1.50545        2.53424        0.80080
C          3.35282        0.85123        0.71609
C          4.32050        1.99195        3.48867
C          0.68724        1.26220        3.57287
H          2.63599        3.28300        3.10919
H          3.85238        3.30778        1.84369
H          2.33943       -0.01408        3.02861
H          1.05094        0.03372        1.83752
H          0.84982        1.90684        0.17386
H          0.86279        3.18161        1.41850
H          2.08290        3.19082        0.12910
H          2.74450        0.21430        0.05269
H          3.96958        1.50615        0.07765
H          4.03272        0.18781        1.27403
H          3.83178        1.36590        4.25290
H          5.05627        1.36098        2.96456
H          4.88642        2.77232        4.02333
H          1.22153        1.84445        4.34101
H         -0.06901        1.92504        3.12220
H          0.14348        0.45829        4.09546
