32
3,3-DIMETHYLOCTANE.gamout	Energy:    -393.7475331
C          3.33105        2.51463        3.93157
C          2.08341        2.09819        4.75959
C          1.77737        3.08923        5.91899
C          2.41425        0.73588        5.40205
C          0.85996        1.90837        3.84836
C          3.34493        3.87134        3.21222
C          0.97605        4.36010        5.61485
C          4.55977        4.05952        2.29328
C          4.61044        5.42696        1.60322
C          5.81627        5.61035        0.68049
H          4.20650        2.47160        4.60575
H          3.50297        1.72280        3.17907
H          1.22400        2.52983        6.69418
H          2.73702        3.36605        6.39210
H          3.25016        0.82308        6.11574
H          2.70353       -0.00718        4.64106
H          1.54666        0.33466        5.94994
H         -0.02104        1.58991        4.43011
H          1.05688        1.12915        3.09366
H          0.58575        2.82825        3.31138
H          2.42273        3.99902        2.61720
H          3.34086        4.68767        3.95525
H          1.45180        5.00570        4.86225
H          0.86404        4.96036        6.53255
H         -0.03989        4.13003        5.25612
H          4.56942        3.26447        1.52326
H          5.48762        3.91445        2.87940
H          3.67947        5.57785        1.02555
H          4.61278        6.22143        2.37266
H          6.76655        5.50956        1.23247
H          5.82567        4.86022       -0.12873
H          5.81162        6.60578        0.20946
