19
3,3-DIMETHYLCYCLOPENTENE.gamout	Energy:    -273.5614669
C          1.01534       -0.68594       -0.06775
C          1.01039        0.65094       -0.02363
C         -0.38577        1.23282        0.15660
C         -1.28169       -0.01623       -0.12856
C         -0.37681       -1.25896        0.05983
C         -0.66973        2.38583       -0.82115
C         -0.56189        1.73284        1.60714
H          1.91151       -1.30834       -0.14714
H          1.90219        1.28489       -0.06026
H         -1.62963        0.02214       -1.17388
H         -2.17923       -0.03751        0.50970
H         -0.58563       -2.04946       -0.68190
H         -0.51342       -1.73018        1.05235
H         -0.51585        2.07004       -1.86575
H         -0.00689        3.24607       -0.62677
H         -1.71029        2.73945       -0.72263
H         -0.41316        0.91659        2.33268
H         -1.57312        2.14698        1.76031
H          0.16499        2.52719        1.84666
