21
3,3-DIMETHYL-2-BUTANOL.gamout	Energy:    -311.8562723
C         -1.39622        1.27506       -0.48542
C         -0.66679        0.02173        0.03343
C          0.81258        0.01188       -0.47617
C          1.66015        1.22425       -0.08304
O          1.48388       -1.19006       -0.11658
C         -0.72039       -0.00856        1.57234
C         -1.37023       -1.23272       -0.51979
H         -1.31159        1.36204       -1.58217
H         -2.47002        1.22466       -0.24041
H         -1.00278        2.20290       -0.04088
H          0.76023       -0.02199       -1.57934
H          1.76053        1.31309        1.01258
H          2.67133        1.11003       -0.50299
H          1.24027        2.16935       -0.45889
H          1.70543       -1.14060        0.82320
H         -1.76368       -0.05910        1.92472
H         -0.20316       -0.89579        1.97492
H         -0.26678        0.88875        2.02359
H         -1.39944       -1.21643       -1.62247
H         -0.83787       -2.14534       -0.21564
H         -2.40963       -1.29181       -0.15679
