26
3,3-DIMETHYLHEXANE.gamout	Energy:    -315.2380445
C          3.82253        2.80493        2.73014
C          2.78431        1.99932        1.90296
C          1.58225        1.62227        2.81524
C          2.29253        2.81287        0.68803
C          3.40723        0.68138        1.40039
C          5.12916        3.20972        2.03397
C          0.76712        2.76515        3.42756
C          6.05322        4.01886        2.94743
H          3.33908        3.72538        3.10305
H          4.07381        2.21214        3.63011
H          1.96195        0.98120        3.63230
H          0.90085        0.98251        2.22499
H          1.48179        2.27959        0.16370
H          1.90837        3.80285        0.98211
H          3.10194        2.97599       -0.04090
H          3.79759        0.08000        2.23914
H          2.65654        0.06888        0.87375
H          4.23640        0.85802        0.69756
H          4.90434        3.80342        1.13079
H          5.66787        2.31209        1.68430
H          1.36668        3.39171        4.10716
H          0.33309        3.42758        2.66117
H         -0.07181        2.36133        4.01785
H          5.56742        4.94759        3.29291
H          6.33289        3.44275        3.84604
H          6.98514        4.30397        2.43248
