24
3,3-DIMETHYL-1-HEXENE.gamout	Energy:    -314.0120928
C          5.84153        4.19315        1.68350
C          4.34751        4.22952        2.01666
C          3.64120        2.90993        1.68061
C          2.11082        2.81815        1.96619
C          1.68954        1.39618        1.62776
C          1.82271        3.04331        3.46969
C          1.33550        3.85543        1.13793
C          0.80287        0.99279        0.71283
H          6.01059        3.99770        0.61077
H          6.33350        5.14868        1.92800
H          6.36033        3.39864        2.24668
H          3.87648        5.06102        1.46443
H          4.22504        4.46269        3.08851
H          3.79933        2.68565        0.60982
H          4.14328        2.09491        2.23477
H          2.19873        0.62750        2.22603
H          2.09766        4.06194        3.78500
H          0.75114        2.90293        3.68436
H          2.38608        2.33172        4.09643
H          1.61463        4.88060        1.42490
H          1.53287        3.74252        0.05947
H          0.24960        3.75513        1.29493
H          0.59140       -0.07055        0.56699
H          0.25344        1.69005        0.07453
