32
3,3-DIETHYL-2-METHYLPENTANE.gamout	Energy:    -393.7292965
C         12.73664       57.64712        0.34495
C         14.22229       57.32540        0.15554
C         15.26911       58.48150        0.03807
C         15.21563       59.36512        1.35517
C         16.64174       57.73368       -0.07953
C         15.00454       59.34613       -1.22512
C         16.53142       60.04585        1.77563
C         14.12566       60.45615        1.36859
C         17.85233       58.45242       -0.69107
C         14.93391       58.60563       -2.56676
H         12.14350       56.72044        0.26830
H         12.51727       58.08406        1.33076
H         12.35146       58.33889       -0.42219
H         14.31813       56.69850       -0.74643
H         14.54588       56.67816        0.99112
H         14.97193       58.65200        2.16584
H         16.47695       56.82254       -0.68027
H         16.91062       57.36078        0.92483
H         14.05812       59.89405       -1.09873
H         15.78457       60.12467       -1.28607
H         16.37602       60.59114        2.72155
H         17.35377       59.33726        1.94635
H         16.86679       60.78803        1.03209
H         14.01838       60.86187        2.38829
H         13.13673       60.10088        1.05343
H         14.39847       61.30154        0.71592
H         18.73042       57.78540       -0.66530
H         18.13049       59.37346       -0.16197
H         17.68827       58.71924       -1.74664
H         14.84556       59.32537       -3.39722
H         15.82618       57.99048       -2.76406
H         14.05845       57.93936       -2.62538
