32
3,3-DIMETHYL-4-ETHYLHEXANE.gamout	Energy:    -393.7380124
C          0.17809       35.99556       -1.48785
C          1.09967       35.54976       -0.34770
C          2.07654       36.64466        0.17746
C          1.66647       37.27578        1.56625
C          3.52795       36.10937        0.14617
C          0.18770       37.75694        1.48168
C          1.83147       36.25566        2.71049
C          2.56344       38.49963        1.85332
C         -0.39442       38.47360        2.70600
C          4.09984       35.95846       -1.26698
H         -0.46408       35.16786       -1.83286
H         -0.48236       36.82308       -1.18436
H          0.76148       36.34493       -2.35667
H          1.68566       34.68564       -0.70353
H          0.48876       35.15295        0.48018
H          2.03930       37.48551       -0.54159
H          4.19666       36.77495        0.71344
H          3.56660       35.13104        0.65823
H          0.09772       38.43068        0.61031
H         -0.45727       36.89064        1.26213
H          1.56073       36.69899        3.68147
H          2.87337       35.90998        2.79689
H          1.19636       35.36578        2.56749
H          3.62605       38.22810        1.93559
H          2.47051       39.25667        1.05593
H          2.28930       38.98270        2.80377
H         -1.45095       38.73149        2.52582
H         -0.36708       37.84743        3.61226
H          0.13169       39.41386        2.93423
H          5.12578       35.55590       -1.24006
H          3.49856       35.27633       -1.89086
H          4.13927       36.93004       -1.78894
