32
3,4,5-TRIMETHYLHEPTANE.gamout	Energy:    -393.7436444
C          0.85498        1.21850        0.53170
C          1.33892        0.94306        1.95752
C          2.73753        1.49329        2.31390
C          2.88159        3.03146        2.11758
C          3.14048        1.01960        3.71768
C          4.35181        3.55271        2.20283
C          1.94443        3.81242        3.05627
C          4.44482        5.04689        1.81687
C          5.32536        2.72866        1.34757
C          5.81484        5.70245        2.02510
H          1.59052        0.87593       -0.21639
H         -0.09012        0.68862        0.33258
H          0.67031        2.28906        0.34786
H          1.37096       -0.15011        2.11107
H          0.58824        1.31362        2.67894
H          3.42895        1.01747        1.59834
H          2.55496        3.24010        1.08177
H          2.45388        1.40233        4.49111
H          4.15762        1.34114        3.99024
H          3.11738       -0.08041        3.77713
H          4.68078        3.47461        3.25778
H          1.83173        4.86096        2.74706
H          2.31392        3.81185        4.09549
H          0.93320        3.37912        3.06881
H          4.14363        5.15778        0.75748
H          3.70786        5.62076        2.39850
H          5.37172        1.67471        1.65562
H          6.34986        3.12202        1.42043
H          5.03597        2.75364        0.28182
H          5.76113        6.78335        1.81885
H          6.16422        5.58323        3.06540
H          6.59191        5.28607        1.36484
