24
3,4,4-TRIMETHYL-CIS-2-PENTENE.gamout	Energy:    -314.0101083
C          2.87778        1.99560        2.26450
C          1.99934        1.85902        1.24899
C          2.49762        2.07191        3.77020
C          4.34929        2.07466        1.91230
C          0.49985        1.74338        1.22341
C          1.80611        0.76013        4.21247
C          3.73849        2.25452        4.67571
C          1.57247        3.28425        4.03067
H          2.44100        1.82314        0.24394
H          4.80985        3.01634        2.25619
H          4.93000        1.25981        2.37728
H          4.50126        2.01006        0.82477
H          0.19621        0.81779        0.70188
H          0.02383        1.73692        2.21030
H          0.05841        2.57637        0.64630
H          0.87993        0.56656        3.65468
H          2.47240       -0.10410        4.05807
H          1.55131        0.80031        5.28527
H          3.41973        2.30186        5.72939
H          4.27949        3.18685        4.45445
H          4.44707        1.41777        4.58457
H          1.31834        3.35265        5.10222
H          2.07127        4.22419        3.74388
H          0.63140        3.22514        3.46771
