19
3,4-DIHYDROXYPHENYLACETATE-1.gamout	Energy:    -609.2361489
O         -2.68323        1.88393       -0.34857
O         -3.59174       -0.49645        0.50088
O          3.95027        0.41679        0.32431
O          2.81476       -1.52103        0.59670
C          0.46717       -0.04779       -0.52785
C          1.91056        0.14215       -0.90652
C         -0.45609        1.01017       -0.61342
C          0.00140       -1.29522       -0.06942
C         -1.79742        0.84145       -0.26359
C         -1.33884       -1.46938        0.28016
C         -2.24252       -0.41091        0.18151
C          3.00727       -0.37178        0.13940
H          2.11550        1.19928       -1.13246
H          2.11502       -0.43531       -1.82933
H         -0.13574        1.99754       -0.95587
H          0.74457       -2.08407        0.05989
H         -1.69152       -2.44276        0.64282
H         -3.52837        1.54267       -0.01915
H         -3.74174       -1.32480        0.97240
