15
3,4-DIMETHYLTHIOPHENE.gamout	Energy:    -631.1423296
C         -4.96084       -0.75357       -1.21207
C         -3.69161       -0.08628       -1.02626
C         -5.93433       -0.24576       -0.38613
C         -5.17417       -1.87003       -2.19708
C         -3.76258        0.89605       -0.06818
C         -2.45021       -0.43790       -1.79951
S         -5.34472        1.03307        0.62085
H         -6.97575       -0.55973       -0.31697
H         -4.51826       -2.73145       -1.98161
H         -6.21395       -2.22885       -2.17851
H         -4.94867       -1.54832       -3.22873
H         -2.96013        1.55114        0.27067
H         -1.59847        0.19088       -1.50046
H         -2.16071       -1.49170       -1.64324
H         -2.59932       -0.30660       -2.88544
