21
3,4-DIMETHYL-CIS-2-PENTENE.gamout	Energy:    -274.7606914
C          3.62137        2.24790        1.87570
C          2.13514        1.88900        1.74238
C          1.16365        2.70062        1.28331
C          1.79441        0.48397        2.18242
C          3.88491        3.36418        2.90299
C          4.30172        2.52732        0.52278
C          1.24145        4.12010        0.79450
H          4.11506        1.34573        2.27819
H          0.15019        2.27740        1.25422
H          2.07080        0.31917        3.24024
H          0.72219        0.26148        2.07207
H          2.36061       -0.26367        1.59680
H          4.96828        3.49950        3.06165
H          3.47325        4.33299        2.58116
H          3.43106        3.12040        3.87728
H          3.92388        3.44468        0.04549
H          5.39063        2.64636        0.65402
H          4.13727        1.69716       -0.18306
H          2.25211        4.54555        0.82501
H          0.87776        4.19534       -0.24632
H          0.58527        4.77551        1.39556
