24
3,4-DIMETHYL-CIS-2-HEXENE.gamout	Energy:    -314.0162715
C          1.29922       -1.13727       -0.12677
C          2.55030       -0.30590       -0.07196
C          3.09226        0.51382       -0.99307
C          2.52287        0.81133       -2.38724
C          2.44290       -0.41924       -3.31953
C          3.78254       -1.11737       -3.55887
C          1.18499        1.57155       -2.32741
C          4.37228        1.25297       -0.67600
H          1.53778       -2.21161       -0.02216
H          0.71996       -1.01631       -1.05087
H          0.63206       -0.88882        0.71835
H          3.09485       -0.39205        0.87846
H          3.24204        1.50041       -2.86701
H          2.03151       -0.08223       -4.28846
H          1.71696       -1.14650       -2.91914
H          4.52013       -0.42912       -4.00650
H          3.66977       -1.97226       -4.24554
H          4.21171       -1.50016       -2.61860
H          0.37694        0.95594       -1.90317
H          0.86967        1.88516       -3.33702
H          1.27018        2.47733       -1.70555
H          4.74152        1.03636        0.33819
H          4.22888        2.34607       -0.75989
H          5.17038        0.99106       -1.39438
