14
3,4-DICHLOROANILINE.gamout	Energy:   -1206.0218415
C          6.33429        1.86433       -0.68709
C          6.85248        0.60035       -0.34663
C          4.93284        2.01978       -0.72353
N          7.17907        2.93445       -0.92834
C          6.00384       -0.46930       -0.05350
C          4.60946       -0.30619       -0.09280
Cl         6.71335       -2.00748        0.35868
C          4.09257        0.94970       -0.43108
Cl         3.52126       -1.62113        0.26577
H          7.93154        0.43918       -0.30327
H          4.50080        2.99049       -0.98110
H          6.79403        3.71499       -1.44678
H          8.13833        2.71955       -1.17322
H          3.00885        1.07803       -0.46365
