24
3,4-DIMETHYL-TRANS-2-HEXENE.gamout	Energy:    -314.0184057
C          1.44423        4.45769        0.74516
C          1.00457        3.07199        1.22470
C          1.71118        3.27340        3.67109
C          1.84716        2.45733        2.37857
C          3.28671        2.16131        1.94979
C          3.43064        0.94471        1.06457
C          4.32735        2.91515        2.35280
C          5.78408        2.75805        2.01806
H          2.49540        4.45464        0.41469
H          0.82514        4.79137       -0.10349
H          1.34993        5.21990        1.53588
H         -0.04690        3.11748        1.56105
H          1.01429        2.37796        0.36690
H          0.65131        3.34519        3.96592
H          2.26316        2.80280        4.49980
H          2.08856        4.30224        3.56381
H          1.38820        1.47034        2.58132
H          3.17793        0.02699        1.62676
H          2.73153        0.98314        0.21193
H          4.44251        0.81963        0.65696
H          4.11093        3.76370        3.01069
H          6.17542        3.67155        1.53470
H          6.38549        2.61817        2.93447
H          5.99423        1.91116        1.34984
