24
3,4-DIMETHYL-CIS-3-HEXENE.gamout	Energy:    -314.0198082
C          4.40927        3.22733        1.12561
C          5.41055        3.36304        2.28521
C          3.10675        3.98220        1.35066
C          1.99846        3.39147        1.85563
C          3.19336        5.44230        0.96795
C          1.95305        1.91832        2.23808
C          0.68439        4.10188        2.08890
C          1.38706        1.01085        1.13278
H          4.88365        3.61494        0.20551
H          4.22108        2.16008        0.93505
H          5.00995        2.92144        3.21221
H          6.36173        2.85573        2.05259
H          5.64318        4.41909        2.49969
H          3.28949        5.55454       -0.12807
H          2.33356        6.04220        1.29211
H          4.09698        5.90465        1.40288
H          1.32138        1.81124        3.13877
H          2.94888        1.55238        2.53025
H          0.47829        4.19645        3.17143
H          0.62977        5.10627        1.64971
H         -0.15228        3.51636        1.66867
H          1.31334       -0.03528        1.47374
H          0.37815        1.32942        0.82274
H          2.02664        1.02990        0.23531
