32
3,4-BENZOPYRENE.gamout	Energy:    -768.3798390
C          5.18662        2.90928        0.87994
C          4.23008        1.86585        0.87607
C          5.38340        3.64859        2.02381
C          3.49544        1.58668        2.01010
C          3.66826        2.32674        3.21185
C          4.63971        3.38319        3.20966
C          2.91812        2.06509        4.41943
C          4.84703        4.14740        4.38354
C          4.13666        3.90936        5.54994
C          3.15396        2.85289        5.57820
C          4.35112        4.69005        6.74452
C          2.42113        2.60959        6.78499
C          1.93013        1.03059        4.50636
C          2.66015        3.40371        7.95056
C          1.44427        1.57084        6.83490
C          3.65084        4.45114        7.88422
C          1.93022        3.14440        9.11705
C          1.22685        0.79322        5.65521
C          0.73151        1.34407        8.03071
C          0.97364        2.12198        9.15582
H          5.76286        3.12226       -0.02297
H          4.07215        1.27771       -0.03055
H          6.11776        4.45682        2.04241
H          2.76742        0.77650        1.97307
H          5.59077        4.94757        4.36356
H          5.09782        5.48634        6.71033
H          1.72797        0.41040        3.63380
H          3.82729        5.05288        8.77901
H          2.11425        3.75184       10.00685
H          0.48185       -0.00463        5.68204
H         -0.01478        0.54694        8.06076
H          0.41661        1.93814       10.07685
