26
3,4-DIMETHYLHEXANE.gamout	Energy:    -315.2353976
C          3.16732        0.59752        1.16315
C          3.28582        2.04654        1.66600
C          0.71759        2.45470        1.71738
C          2.08415        2.88529        1.17470
C          4.65427        2.69387        1.28607
C          5.85329        1.85526        1.78497
C          7.22486        2.29016        1.25844
C          4.77245        4.14385        1.78576
H          3.88399       -0.07960        1.64972
H          2.16563        0.18497        1.35601
H          3.34227        0.54549        0.07393
H          3.24022        2.02561        2.77413
H          0.70654        2.46172        2.82093
H         -0.07278        3.14248        1.37497
H          0.42804        1.44362        1.38995
H          2.06568        2.86634        0.06802
H          2.23572        3.93920        1.45271
H          4.70513        2.71121        0.17812
H          5.70623        0.80217        1.50140
H          5.86085        1.87048        2.89187
H          8.01271        1.60168        1.60507
H          7.24682        2.28913        0.15496
H          7.50945        3.30033        1.59279
H          4.60067        4.19746        2.87546
H          5.77332        4.55694        1.59013
H          4.05404        4.81977        1.30011
