19
3,4-DINITROTOLUENE.gamout	Energy:    -679.6977689
O          6.77440        3.86708       -1.68963
N          7.13859        3.05892       -0.85383
O          8.10030        3.17162       -0.11712
C          6.29562        1.85947       -0.67543
C          6.82675        0.61466       -0.31347
C          4.91529        2.01676       -0.76559
N          8.28045        0.33791       -0.33878
C          5.98240       -0.45004       -0.01792
C          4.07143        0.94139       -0.47907
O          8.71921       -0.37246        0.54753
O          8.90839        0.79354       -1.27484
C          4.58631       -0.30608       -0.09501
C          3.68299       -1.47518        0.20207
H          4.51994        2.99414       -1.04516
H          6.43517       -1.40256        0.26379
H          2.98960        1.08156       -0.54552
H          3.67554       -2.18771       -0.64104
H          4.02383       -2.02896        1.09069
H          2.64619       -1.15124        0.37284
