24
3,4-DIMETHYL-1-HEXENE.gamout	Energy:    -314.0111992
C          3.44887        3.78787        2.55801
C          2.77530        2.47754        2.03554
C          1.45849        2.17833        2.78393
C          2.58445        2.45366        0.51162
C          4.86053        3.94093        2.04134
C          2.63330        5.06334        2.27694
C          0.97962        0.72794        2.67058
C          5.97135        3.75848        2.76223
H          3.51796        3.67252        3.65511
H          3.48249        1.66614        2.29094
H          0.66266        2.85210        2.41774
H          1.59306        2.42413        3.85277
H          2.18617        1.48303        0.17677
H          3.53388        2.61244       -0.02326
H          1.87554        3.22963        0.17766
H          4.96125        4.22984        0.98631
H          2.53710        5.25724        1.19582
H          3.12553        5.94164        2.72411
H          1.61794        4.99975        2.69859
H          1.74422        0.02497        3.04290
H          0.06297        0.56432        3.26039
H          0.75066        0.44570        1.63016
H          5.92723        3.47975        3.82129
H          6.96675        3.88240        2.32519
