32
3,4-DIETHYLHEXANE.gamout	Energy:    -393.7427060
C          5.85557        2.70373        3.20137
C          4.58347        3.32566        3.78625
C          3.26021        2.67708        3.29426
C          2.68095        1.68345        4.31954
C          2.22141        3.75122        2.84814
C          3.57311        0.48716        4.65898
C          1.39448        2.45307        0.74340
C          1.03548        3.17853        2.04301
C          1.71683        4.61597        4.02459
C          1.08390        5.95132        3.62223
H          5.87618        2.79576        2.10180
H          6.75734        3.20371        3.59038
H          5.94037        1.63178        3.44025
H          4.63359        3.28739        4.88931
H          4.58200        4.39938        3.53159
H          3.51097        2.09636        2.38852
H          2.44238        2.22563        5.25182
H          1.71895        1.30220        3.93834
H          2.77302        4.42642        2.16405
H          3.84190       -0.09193        3.75869
H          4.51295        0.79156        5.14781
H          3.05773       -0.19958        5.34942
H          2.00974        3.08778        0.08226
H          1.95606        1.52151        0.92012
H          0.48535        2.18046        0.18385
H          0.36075        4.01432        1.79626
H          0.44360        2.50468        2.68835
H          0.98914        4.03468        4.61911
H          2.56005        4.82541        4.70349
H          1.79137        6.57570        3.04975
H          0.18205        5.82274        3.00149
H          0.78292        6.52682        4.51205
