14
3,4-DICHLOROPHENYL_ISOCYANATE.gamout	Energy:   -1318.0191588
C          6.84846        4.15770       -1.28196
N          6.86874        2.99260       -0.97334
C          6.09483        1.87877       -0.67749
O          6.94550        5.28629       -1.58078
C          6.74276        0.67739       -0.35682
C          4.68917        1.92528       -0.69071
C          6.00083       -0.46644       -0.05177
C          3.95435        0.78275       -0.38633
Cl         6.84571       -1.93437        0.34200
C          4.59535       -0.41997       -0.06531
Cl         3.64077       -1.82428        0.30714
H          7.83197        0.63558       -0.34476
H          4.17496        2.85594       -0.93959
H          2.86328        0.81051       -0.39465
