19
3,4-DIMETHYL-1-PENTYNE.gamout	Energy:    -273.5132274
C          0.99813        0.07012        0.06385
C          2.21056        0.06685        0.03611
C          3.68096        0.09110        0.03514
C          4.24173        0.75964       -1.25827
C          5.77542        0.81209       -1.25904
C          3.73339        0.05204       -2.52071
C          4.18766        0.74448        1.33772
H         -0.07524        0.06677        0.08572
H          4.02600       -0.96201        0.02921
H          3.86002        1.79795       -1.26890
H          6.20651       -0.19968       -1.15983
H          6.18080        1.43277       -0.44612
H          6.14431        1.23476       -2.20752
H          4.10376       -0.98745       -2.56449
H          4.08748        0.56750       -3.42808
H          2.63440        0.01880       -2.55585
H          3.94590        1.81964        1.35553
H          5.27635        0.63184        1.44545
H          3.71194        0.27889        2.21380
