24
3,5-DIMETHYL-CIS-2-HEXENE.gamout	Energy:    -314.0212740
C          1.50075        0.74670        1.40345
C          2.69219        0.28996        0.61063
C          3.00543       -0.96830        0.24744
C          2.14409       -2.17328        0.59227
C          0.89042       -2.38729       -0.29413
C          1.23016       -2.53561       -1.78225
C          0.08734       -3.59396        0.20762
C          4.27240       -1.25760       -0.52122
H          0.83019        1.37947        0.79343
H          1.81294        1.36863        2.26145
H          0.89992       -0.08689        1.79568
H          3.38142        1.08853        0.30539
H          1.80708       -2.10204        1.64074
H          2.76411       -3.08655        0.53660
H          0.25596       -1.48815       -0.18717
H          1.88592       -3.40699       -1.95725
H          1.74112       -1.64247       -2.17501
H          0.31673       -2.68452       -2.38132
H          0.67605       -4.52407        0.12027
H         -0.83825       -3.73196       -0.37537
H         -0.19757       -3.48073        1.26692
H          4.82789       -0.33883       -0.76504
H          4.06225       -1.79026       -1.46514
H          4.94272       -1.91599        0.06140
