29
3,5-DIMETHYLHEPTANE.gamout	Energy:    -354.4867614
C          2.78035        3.96441        4.51963
C          3.73359        4.00321        3.29566
C          2.34184        2.65492        5.22755
C          3.16142        3.34434        2.02206
C          5.16626        3.53138        3.59796
C          1.45516        1.72840        4.36794
C          3.48889        1.88775        5.90790
C          3.84519        3.78022        0.72173
C          0.63541        0.71658        5.17549
H          3.23658        4.60667        5.29565
H          1.85473        4.48935        4.21875
H          3.81060        5.08390        3.06327
H          1.68924        3.01543        6.04743
H          3.22116        2.24563        2.10987
H          2.08603        3.58321        1.95006
H          5.22853        2.43662        3.69834
H          5.54385        3.97360        4.53411
H          5.86055        3.82623        2.79526
H          0.76282        2.34725        3.77084
H          2.07991        1.18524        3.63787
H          3.10147        1.14430        6.62184
H          4.14723        2.56878        6.47132
H          4.11395        1.34741        5.17985
H          3.76985        4.87175        0.57712
H          3.37875        3.29787       -0.15275
H          4.91535        3.51759        0.70564
H         -0.00231        0.10324        4.51832
H          1.27539        0.02457        5.74661
H         -0.02629        1.22538        5.89775
