24
3,5-DIMETHYL-TRANS-2-HEXENE.gamout	Energy:    -314.0207132
C          0.56208        0.44691        0.40954
C          2.05870        0.55133        0.46437
C          2.92980        0.75468       -0.54188
C          4.42459        0.80237       -0.24873
C          5.11037       -0.57062       -0.04002
C          4.96274       -1.50144       -1.24953
C          6.58739       -0.37978        0.32746
C          2.53611        0.96230       -1.98371
H          0.08720        1.23484        1.02222
H          0.21871       -0.51622        0.82883
H          0.15557        0.52851       -0.60883
H          2.48413        0.44826        1.47275
H          4.59473        1.40634        0.65952
H          4.94580        1.33002       -1.06866
H          4.60502       -1.05379        0.81712
H          5.42485       -1.05954       -2.15027
H          3.90574       -1.71004       -1.47778
H          5.45817       -2.46939       -1.06629
H          7.14277        0.09678       -0.49941
H          7.07548       -1.34531        0.54066
H          6.70528        0.25939        1.21819
H          1.45698        0.85848       -2.16341
H          3.05824        0.25007       -2.64541
H          2.83666        1.97133       -2.32006
