24
3,5-DIMETHYL-1-HEXENE.gamout	Energy:    -314.0128691
C          0.49969       -0.09594       -0.51448
C          1.61119        0.79683        0.05663
C          1.26185        2.30205        0.02393
C          1.95319        0.35958        1.48881
C          1.48463        3.05792       -1.30696
C          0.57303        2.61489       -2.42513
C          1.31613        4.57419       -1.08218
C          0.95863        2.21725       -3.64166
H          0.79468       -1.15828       -0.48704
H         -0.42541        0.00468        0.08073
H          0.25909        0.15688       -1.55663
H          2.51739        0.65003       -0.56257
H          0.21228        2.44030        0.34907
H          1.87797        2.81388        0.78417
H          2.80670        0.92628        1.89690
H          2.21117       -0.71161        1.53164
H          1.09457        0.51937        2.16492
H          2.52767        2.87749       -1.62768
H         -0.50277        2.67453       -2.20462
H          1.52106        5.13854       -2.00525
H          2.00058        4.93751       -0.29770
H          0.28695        4.81566       -0.76448
H          0.23217        1.94608       -4.41336
H          2.01797        2.14601       -3.91283
