27
3-(MMIM)PHOH+1.gamout	Energy:    -610.7088185
H          1.07346       -4.71267       -3.73146
C          0.65970       -4.44533       -2.75631
H          1.13044       -2.35221       -2.97515
H          2.81588       -0.67104       -2.04006
C          0.70430       -3.11906       -2.32754
C          0.08322       -5.43620       -1.96125
H          3.34311       -0.35189       -0.35846
C          2.64331       -0.92297       -0.98287
C          0.16129       -2.78480       -1.07265
C         -0.46665       -5.10591       -0.71188
N          1.27682       -0.58061       -0.58300
C          0.19491       -1.39481       -0.60252
H         -2.44467       -1.90740       -0.72059
C         -0.42050       -3.77635       -0.26880
C          0.91008        0.65049       -0.07933
N         -0.84760       -0.68309       -0.11218
H          2.81363       -1.99533       -0.83051
C         -0.41639        0.58504        0.21837
H          1.61956        1.46623        0.02975
C         -2.23618       -1.12819        0.02190
H         -0.82635       -3.55296        0.71805
H         -1.08466        1.33482        0.63308
H         -2.42521       -1.52318        1.03193
H         -2.89654       -0.26915       -0.15807
O         -1.04375       -6.00262        0.10720
H          0.05625       -6.47199       -2.31042
H         -1.02496       -6.89033       -0.27713
