14
3-AMINO-1-PROPANOL.gamout	Energy:    -249.3559853
N         -4.91133        0.42133        0.37288
C         -3.76055        1.25779        0.04495
H         -5.78031        0.91849        0.17651
H         -4.92095       -0.40791       -0.22346
C         -2.45387        0.53823        0.37354
H         -3.82757        2.17994        0.65120
H         -3.72969        1.59482       -1.01671
C         -1.21281        1.37751        0.10874
H         -2.37395       -0.38887       -0.22362
H         -2.46320        0.22879        1.43163
O         -0.07414        0.60832        0.44189
H         -1.26421        2.31105        0.70903
H         -1.19353        1.68803       -0.95821
H          0.71292        1.14517        0.28877
