9
3-BROMO-1-PROPENE.gamout	Energy:   -2690.8666705
C          0.00317        0.08050        0.26584
C          1.10724        0.55932       -0.31729
C          2.45088       -0.07082       -0.20254
Br         3.74255        1.13531        0.71603
H         -0.96680        0.56744        0.13279
H          0.02778       -0.81595        0.89489
H          1.05108        1.46476       -0.93298
H          2.43591       -0.99472        0.38857
H          2.91277       -0.25821       -1.18112
