26
3-BUTOXYPROPANE-1,2-DIOL.gamout	Energy:    -501.3532308
C         -0.12909       -0.46617       -1.44686
C         -0.67690       -1.80085       -0.95143
C          0.21687       -2.97777       -1.33549
O         -0.10056       -0.49795       -2.86062
O         -0.84021       -1.66114        0.44598
O          1.51495       -2.78991       -0.83380
C          2.43993       -3.77839       -1.22185
C          3.80660       -3.43658       -0.64639
C          4.88971       -4.46051       -0.99689
C          6.26617       -4.10160       -0.43311
H         -0.78937        0.33424       -1.05893
H          0.87491       -0.32751       -1.00660
H         -1.65160       -1.96804       -1.45873
H          0.22454       -3.06281       -2.44077
H         -0.22602       -3.91958       -0.93688
H          0.41631        0.25411       -3.17208
H         -1.07980       -2.52027        0.81507
H          2.49423       -3.84078       -2.33052
H          2.11019       -4.77905       -0.86548
H          3.71131       -3.34288        0.45001
H          4.09660       -2.43634       -1.01439
H          4.95838       -4.56003       -2.09614
H          4.58769       -5.45722       -0.62565
H          6.61230       -3.12795       -0.81887
H          7.02289       -4.85582       -0.70285
H          6.24225       -4.03007        0.66741
