26
3-CARENE.gamout	Energy:    -390.1107252
C         -1.45332        0.69897        0.29073
C         -2.11259       -0.42196       -0.04305
C         -1.65336       -1.44645       -1.04603
C         -0.12877        1.08145       -0.33323
C          0.45487        0.09843       -1.33658
C         -0.30706       -1.16404       -1.69653
C          1.00676       -1.25948       -0.94038
C         -1.99043        1.67107        1.30910
C          1.03196       -1.68900        0.51720
C          2.21067       -1.75947       -1.72420
H          0.99142        0.58451       -2.15894
H         -0.25555       -1.47343       -2.74633
H         -3.07440       -0.62767        0.44258
H         -2.42035       -1.52001       -1.83979
H         -1.64996       -2.44589       -0.56763
H          0.59876        1.29173        0.47624
H         -0.26937        2.05602       -0.83826
H         -2.96977        1.35795        1.70130
H         -2.10052        2.68268        0.87759
H         -1.29678        1.77442        2.16371
H          1.93823       -1.30548        1.01778
H          1.06001       -2.78988        0.59612
H          0.16117       -1.33659        1.08650
H          3.15271       -1.38159       -1.28920
H          2.17552       -1.43334       -2.77619
H          2.26078       -2.86249       -1.71734
