15
3-CHLORO-2-METHYL-1-BUTENE.gamout	Energy:    -655.6563924
C         29.93479       17.07942        0.14122
C         28.42723       17.05733       -0.00122
C         27.79855       15.68787       -0.05218
C         27.70006       18.18086       -0.08607
C         30.63041       18.42314        0.00379
Cl        30.38825       16.35603        1.78472
H         30.36484       16.35979       -0.57264
H         28.21899       15.08962       -0.88030
H         28.01182       15.13330        0.87602
H         26.70871       15.74595       -0.18615
H         26.61294       18.13676       -0.19994
H         28.14526       19.17708       -0.04580
H         31.71755       18.29871        0.10986
H         30.42235       18.85893       -0.98696
H         30.29225       19.12768        0.77800
