12
3-CHLORO-1-PROPANOL.gamout	Energy:    -653.4853555
Cl         2.61971        1.65581        1.23263
O         -2.40657        0.66581        0.94294
C         -0.06222        1.02935        1.05454
C         -1.16621        0.01233        0.78311
C          1.32762        0.43053        0.91005
H         -0.19326        1.43253        2.07193
H         -0.18015        1.87431        0.35657
H         -1.04858       -0.39859       -0.24276
H         -1.06254       -0.84606        1.48151
H          1.49484       -0.39358        1.61939
H          1.50568        0.05031       -0.10670
H         -3.11303        0.03082        0.77267
