13
3-CHLOROPHENOL.gamout	Energy:    -766.4691951
Cl         2.59287       -0.38776       -0.18687
O         -2.43226       -1.42841       -0.18050
C         -1.42684       -0.51870       -0.13812
C         -0.07604       -0.89391       -0.17942
C         -1.77522        0.83818       -0.05044
C          0.91065        0.09522       -0.13239
C         -0.77096        1.80409       -0.00474
C          0.58283        1.44981       -0.04471
H          0.20939       -1.94671       -0.24819
H         -2.83192        1.11016       -0.01967
H         -1.04510        2.86018        0.06360
H          1.36971        2.20409       -0.00946
H         -2.06487       -2.32039       -0.24000
