28
3-DECYNE.gamout	Energy:    -391.2945727
C          6.85839        0.92613        2.56650
C          5.75524        1.83548        1.99101
C          4.39252        1.14241        1.91754
C          8.17094        1.56680        2.67235
C          3.27694        2.02385        1.34896
C          9.25681        2.10291        2.75562
C          1.91122        1.33189        1.28920
C         10.56614        2.74704        2.89108
C          0.79951        2.21466        0.71961
C         10.86855        3.23952        4.31688
H          6.94429        0.01679        1.94257
H          6.54791        0.57098        3.56694
H          6.05864        2.17948        0.98641
H          5.67977        2.74467        2.61348
H          4.10356        0.79932        2.92918
H          4.48131        0.22385        1.30667
H          3.55924        2.36365        0.33444
H          3.19201        2.94398        1.95790
H          1.63066        0.99570        2.30469
H          1.99808        0.41018        0.68428
H         11.35247        2.03818        2.57286
H         10.62833        3.59647        2.18675
H         -0.16639        1.68458        0.69503
H          1.02984        2.53524       -0.31075
H          0.66194        3.12765        1.32405
H         10.85818        2.40408        5.03426
H         10.11822        3.97512        4.64709
H         11.86037        3.71777        4.35880
