21
3-DIMETHYLAMINOPROPYLAMINE.gamout	Energy:    -308.0079544
N          1.43995       -0.50345        1.70790
N         -2.50293       -0.33315       -0.22150
C          0.77174        0.76896        1.46039
C         -0.36865        0.69546        0.44104
C         -1.46627       -0.30382        0.80621
C          2.17869       -1.00417        0.56473
C          2.25179       -0.47649        2.90771
H          0.35838        1.11413        2.42430
H          1.49755        1.55466        1.13713
H          0.00715        0.45086       -0.56675
H         -0.80585        1.70783        0.35508
H         -1.84004       -0.06214        1.82788
H         -1.02085       -1.30909        0.88362
H          1.51550       -1.14688       -0.30171
H          2.62063       -1.98461        0.80487
H          3.00886       -0.32816        0.24787
H          3.10962        0.23604        2.84975
H          2.66694       -1.47779        3.10789
H          1.63855       -0.18780        3.77682
H         -2.99686        0.56086       -0.25155
H         -3.20886       -1.03529        0.00173
