21
3-ETHYL-2-PENTENE.gamout	Energy:    -274.7645765
C          3.32403        0.62256        2.40676
C          3.11183        1.84666        1.53305
C          4.38781        2.60248        1.20609
C          1.90187        2.24437        1.09795
C          3.34908        0.93674        3.91235
C          4.26096        3.90980        0.42736
C          0.56973        1.59616        1.35039
H          4.28177        0.14795        2.12661
H          2.54513       -0.13119        2.21082
H          5.05484        1.91296        0.65213
H          4.92246        2.79974        2.15543
H          1.85116        3.15166        0.48587
H          4.12850        1.67567        4.16101
H          2.38413        1.35143        4.24656
H          3.55121        0.02937        4.50511
H          5.25339        4.36054        0.26657
H          3.64335        4.64732        0.96573
H          3.80544        3.75433       -0.56426
H         -0.11140        2.28840        1.87779
H          0.63565        0.67782        1.95155
H          0.06912        1.33966        0.39906
