24
3-ETHYL-3-HEXENE.gamout	Energy:    -314.0201548
C          3.55185        3.00463        4.41310
C          3.56501        3.70926        3.04598
C          3.08231        2.83251        1.90263
C          1.57274        2.81273        1.73514
C          3.90810        2.12233        1.11158
C          0.98674        1.86729        0.68902
C          5.41069        2.03467        1.17095
C          5.91455        0.60243        1.41263
H          2.54900        2.62360        4.66679
H          4.24222        2.14584        4.42201
H          3.85734        3.69370        5.21795
H          2.91970        4.60471        3.10132
H          4.58172        4.08205        2.84637
H          1.12167        2.58482        2.72013
H          1.24478        3.84754        1.51455
H          3.45982        1.50532        0.32370
H          1.25417        0.81770        0.89329
H         -0.11289        1.93554        0.67950
H          1.34081        2.11018       -0.32603
H          5.82790        2.39309        0.21021
H          5.81773        2.69936        1.94890
H          5.56813        0.21844        2.38619
H          5.54574       -0.08889        0.63604
H          7.01606        0.55854        1.40160
