22
3-ETHYLCYCLOHEXENE.gamout	Energy:    -312.8234993
C          2.83874        1.32811        0.76675
C          1.34166        1.32453        1.10143
C          3.68063        0.98700        2.00346
C          1.05207        1.99993        2.41780
C          1.99509        2.30811        3.32021
C          3.46833        1.99706        3.15171
C          4.33667        3.26826        2.98162
C          4.23056        4.28444        4.12061
H          3.12571        2.32693        0.39288
H          3.04933        0.61950       -0.05158
H          0.95986        0.28452        1.14080
H          0.76363        1.81020        0.29472
H          4.75111        0.93782        1.74064
H          3.40037       -0.02203        2.35551
H          0.00437        2.23801        2.63708
H          1.69306        2.80416        4.24918
H          3.80649        1.51722        4.09127
H          5.38920        2.94740        2.88039
H          4.07374        3.76038        2.02836
H          4.49008        3.82932        5.09207
H          3.21405        4.70020        4.20845
H          4.91693        5.13121        3.95772
