20
3-ETHOXY-1,2-PROPANEDIOL.gamout	Energy:    -422.8397424
C         -0.12505       -0.07159        2.20439
C          0.96835        0.52992        3.06914
O          1.98991        1.02598        2.23816
C          3.04784        1.63413        2.93463
C          4.06461        2.17898        1.94736
C          5.07503        3.10736        2.62728
O          4.74901        1.08713        1.35700
O          4.39778        4.22110        3.17033
H         -0.54614        0.69060        1.52994
H         -0.93789       -0.47407        2.82961
H          0.27802       -0.88866        1.58537
H          0.55598        1.34584        3.70238
H          1.37255       -0.23405        3.76842
H          2.68344        2.47006        3.56392
H          3.55563        0.90325        3.60110
H          3.50520        2.76186        1.18980
H          5.61923        2.52310        3.39730
H          5.82405        3.41364        1.86666
H          5.12215        1.37801        0.51591
H          5.03544        4.77855        3.63269
