32
3-ETHYLOCTANE.gamout	Energy:    -393.7477442
C          4.32334        3.97310        4.44788
C          3.06596        3.29979        3.85221
C          3.04517        1.79032        4.15888
C          1.79233        4.02914        4.35121
C          5.70121        3.45032        4.00750
C          1.86996        0.99158        3.58956
C          0.69359        4.22140        3.30249
C          6.00997        3.57477        2.51064
C          7.43486        3.14529        2.14330
C          7.75654        3.26240        0.65227
H          4.27112        5.05330        4.21957
H          4.26260        3.90094        5.55009
H          3.10791        3.41779        2.75209
H          3.97852        1.34107        3.78079
H          3.07459        1.65670        5.25759
H          1.38320        3.49028        5.22588
H          2.07939        5.02314        4.73469
H          6.46530        4.01360        4.57308
H          5.82687        2.39789        4.31951
H          1.98886       -0.08116        3.81181
H          0.90330        1.30493        4.01524
H          1.80022        1.09387        2.49299
H         -0.17466        4.74743        3.73055
H          0.33215        3.26448        2.89463
H          1.05506        4.82331        2.45088
H          5.85211        4.62301        2.19097
H          5.29189        2.97213        1.92455
H          8.15652        3.75077        2.72257
H          7.59446        2.10054        2.46962
H          8.79010        2.94574        0.43985
H          7.08604        2.63336        0.04182
H          7.64903        4.30036        0.29265
