24
3-ETHYL-TRANS-2-HEXENE.gamout	Energy:    -314.0207197
C          0.75754        0.73291       -2.11724
C          2.20531        0.40211       -1.89582
C          3.24670        1.23865       -1.72763
C          4.64179        0.67293       -1.49463
C          4.93695        0.17699       -0.05711
C          6.33763       -0.44546        0.01185
C          4.77053        1.27360        1.00175
C          3.14688        2.74393       -1.76942
H          0.12448        0.27998       -1.33282
H          0.39926        0.31923       -3.07747
H          0.55422        1.81337       -2.12455
H          2.42787       -0.67415       -1.87337
H          5.39712        1.43497       -1.76149
H          4.80641       -0.17475       -2.18235
H          4.20007       -0.61700        0.16725
H          7.11631        0.30653       -0.20593
H          6.45198       -1.26345       -0.71866
H          6.54570       -0.85726        1.01321
H          5.46193        2.11466        0.81568
H          4.98858        0.88436        2.01013
H          3.74498        1.67454        1.01736
H          3.58000        3.19663       -0.86116
H          2.11648        3.11199       -1.87029
H          3.72974        3.14358       -2.61946
