29
3-ETHYL-2-METHYLHEXANE.gamout	Energy:    -354.4896482
C          2.70721        1.13035        2.76116
C          4.15170        1.60884        3.04570
C          5.16506        1.26034        1.90803
C          4.24018        3.08098        3.50054
C          1.92281        1.79327        1.62082
C          5.27574        2.30354        0.78320
C          6.56235        0.96630        2.47951
C          3.46609        3.40983        4.78055
C          0.47532        1.29909        1.54117
H          2.74098        0.04089        2.57387
H          2.11784        1.24029        3.68941
H          4.47203        1.00098        3.91328
H          4.80583        0.32008        1.44856
H          3.89895        3.74948        2.69149
H          5.30297        3.33288        3.66160
H          1.92338        2.89074        1.74566
H          2.41887        1.59730        0.65530
H          5.91539        1.92128       -0.02986
H          5.73530        3.23970        1.14050
H          4.30191        2.56058        0.34189
H          6.98536        1.85036        2.98725
H          7.26754        0.68129        1.68135
H          6.53529        0.14299        3.21221
H          3.64391        4.45205        5.09244
H          3.77281        2.75756        5.61653
H          2.37788        3.29125        4.65382
H         -0.07109        1.77450        0.71032
H         -0.07633        1.51942        2.47111
H          0.43251        0.20741        1.38601
