32
3-ETHYL-2,2,4-TRIMETHYLPENTANE.gamout	Energy:    -393.7346672
C         34.21367       10.16720        0.24351
C         33.93868       11.61961       -0.23344
C         35.62160        9.94331        0.80435
C         34.61730       11.82999       -1.63284
C         32.43121       12.04145       -0.01785
C         33.86394       11.26969       -2.85013
C         35.09579       13.26612       -1.91041
C         32.18131       12.16713        1.50488
C         32.11753       13.42369       -0.62645
C         31.42170       11.01895       -0.58496
H         33.49303        9.87875        1.02378
H         34.03858        9.46594       -0.59190
H         34.50684       12.27816        0.45020
H         35.77084        8.89119        1.09810
H         36.40988       10.19057        0.07404
H         35.79779       10.56449        1.69923
H         35.54654       11.23737       -1.56091
H         34.51989       11.27834       -3.73678
H         33.53637       10.22896       -2.70027
H         32.97559       11.86998       -3.10173
H         35.76685       13.27900       -2.78609
H         35.66166       13.67407       -1.05636
H         34.27267       13.96237       -2.12658
H         31.14072       12.47443        1.70150
H         32.34715       11.21979        2.04032
H         32.84219       12.92647        1.95555
H         31.09751       13.73256       -0.34317
H         32.16260       13.42239       -1.72502
H         32.81039       14.19670       -0.25702
H         31.48558       10.92949       -1.67815
H         31.55993       10.01403       -0.15738
H         30.39265       11.33393       -0.34263
