24
3-ETHYL-3-PENTANOL.gamout	Energy:    -351.1129609
C         -1.26059       -0.76005        0.48503
C         -1.37087       -2.21256        0.01436
C         -0.00029        0.00310        0.02056
C         -0.04404        1.47430        0.50874
C         -1.23071        2.30372        0.01050
C          1.28285       -0.70378        0.52893
C          2.61703       -0.09661        0.08144
O         -0.04258       -0.03389       -1.41056
H         -2.13525       -0.20826        0.10620
H         -1.31065       -0.70785        1.58689
H         -0.61039       -2.86533        0.47150
H         -2.35701       -2.62908        0.27623
H         -1.25577       -2.26878       -1.07856
H         -0.00859        1.48109        1.61281
H          0.88650        1.96950        0.17904
H         -1.32283        2.22444       -1.08380
H         -2.18564        1.97654        0.45045
H         -1.09791        3.36660        0.26878
H          1.24858       -0.74252        1.63222
H          1.24751       -1.74711        0.17885
H          2.68676       -0.03637       -1.01881
H          2.78569        0.91298        0.48755
H          3.45695       -0.72692        0.41418
H          0.72764        0.44154       -1.74863
