32
3-ETHYL-2,2,3-TRIMETHYLPENTANE.gamout	Energy:    -393.7314957
C         -0.40047       45.93683        0.13602
C          0.59865       44.80366        0.39984
C          2.05554       45.00244       -0.11330
C          2.89410       43.64741        0.08965
C          2.00977       45.35730       -1.62058
C          2.70780       46.24258        0.57932
C          2.52329       42.59186       -0.98127
C          2.63647       42.98184        1.46310
C          4.41255       43.90439       -0.03320
C          2.86535       46.28472        2.10359
H         -1.38489       45.67552        0.55776
H         -0.09368       46.88728        0.60181
H         -0.55031       46.12751       -0.93837
H          0.19537       43.88156       -0.05264
H          0.61721       44.61696        1.48471
H          3.01606       45.34747       -2.06724
H          1.60363       46.36845       -1.77369
H          1.37963       44.66269       -2.19607
H          3.69309       46.42066        0.11801
H          2.10243       47.11692        0.28677
H          3.00991       41.63263       -0.73901
H          2.85651       42.87750       -1.98981
H          1.43873       42.40312       -1.02396
H          3.31737       42.12349        1.59076
H          2.80723       43.66088        2.30888
H          1.61178       42.59010        1.54943
H          4.80612       44.50891        0.79761
H          4.95849       42.94615       -0.02152
H          4.67439       44.41397       -0.97398
H          3.18294       47.29323        2.41693
H          1.92304       46.06623        2.63171
H          3.62541       45.58193        2.47686
