23
3-ETHYLPENTANE.gamout	Energy:    -275.9807445
C          4.66596        4.17942        1.18710
C          3.36938        3.47505        1.64101
C          3.34005        1.98521        1.20542
C          2.14554        4.26912        1.13786
C          5.93446        3.72707        1.91375
C          2.80386        1.01075        2.25891
C          0.77369        3.75732        1.58195
H          4.78764        4.03204        0.09722
H          4.54742        5.26802        1.33201
H          3.35286        3.50632        2.74895
H          2.74626        1.89205        0.27730
H          4.35886        1.66271        0.93081
H          2.25446        5.31666        1.47201
H          2.18137        4.30114        0.03211
H          6.82140        4.26551        1.54168
H          5.86217        3.91806        2.99824
H          6.13010        2.64985        1.78239
H          1.77521        1.25602        2.56674
H          3.42934        1.02830        3.16767
H          2.79868       -0.02551        1.88169
H          0.69613        3.71137        2.68176
H         -0.02771        4.42360        1.22260
H          0.55497        2.74995        1.19228
