24
3-ETHYL-1-HEXENE.gamout	Energy:    -314.0146848
C          0.21520        0.03741        0.26620
C          1.48840        0.84755        0.01768
C          1.25802        2.36238        0.05157
C          2.52660        3.21468       -0.17412
C          3.09852        2.98219       -1.55172
C          2.26172        4.72683        0.02931
C          4.32224        2.52373       -1.83119
C          1.88766        5.14028        1.45491
H          0.41312       -1.04653        0.23807
H         -0.22668        0.26813        1.25097
H         -0.55367        0.25336       -0.49548
H          1.92449        0.56273       -0.95547
H          2.24784        0.58336        0.77685
H          0.81044        2.62789        1.02512
H          0.50593        2.63703       -0.71343
H          3.28716        2.90372        0.56769
H          2.42625        3.23655       -2.38449
H          3.17164        5.27383       -0.27198
H          1.46818        5.04766       -0.67136
H          4.66701        2.39880       -2.86196
H          5.02844        2.25674       -1.03704
H          1.79128        6.23554        1.53129
H          0.92949        4.70735        1.78409
H          2.65957        4.82511        2.17778
