21
3-ETHYL-1-PENTENE.gamout	Energy:    -274.7543899
C          1.20514        0.95178        2.07551
C          2.04999        2.16430        2.56410
C          3.53881        2.08656        2.14616
C          1.96364        2.29660        4.06588
C          0.47129        1.17173        0.74855
C          3.81669        2.02991        0.64209
C          1.50205        3.35712        4.73474
H          0.45136        0.71188        2.84468
H          1.85491        0.05990        2.00402
H          1.61988        3.08329        2.12317
H          4.05513        2.96378        2.57337
H          3.99134        1.20286        2.63399
H          2.32203        1.42662        4.63549
H         -0.23466        2.01587        0.82539
H         -0.11108        0.27940        0.46545
H          1.15969        1.39467       -0.08108
H          4.90096        2.06016        0.44603
H          3.42879        1.10765        0.18132
H          3.36152        2.88480        0.11388
H          1.47259        3.37825        5.82814
H          1.13463        4.24782        4.21262
