19
3-ETHYL-1-PENTYNE.gamout	Energy:    -273.5136156
C          1.03061       -0.05428        0.02576
C          2.24123       -0.02910       -0.04068
C          3.70810        0.02511       -0.11527
C          4.18862        0.40311       -1.53714
C          3.74617       -0.56790       -2.63111
C          4.26338        0.97016        0.98225
C          5.78053        0.91270        1.16766
H         -0.04077       -0.08266        0.08635
H          4.08309       -0.99449        0.10435
H          5.28951        0.45759       -1.52397
H          3.82671        1.42064       -1.76868
H          4.12397       -1.58695       -2.44021
H          4.12607       -0.25300       -3.61616
H          2.64842       -0.62851       -2.69633
H          3.77200        0.71011        1.93438
H          3.94701        2.00181        0.74803
H          6.12060       -0.11452        1.38378
H          6.09248        1.54712        2.01263
H          6.32853        1.26383        0.27910
