32
3-ETHYL-2,3,4-TRIMETHYLPENTANE.gamout	Energy:    -393.7322838
C         -0.62598       13.46569       -0.04846
C          0.59894       14.39807       -0.11942
C          2.03073       13.72756       -0.01660
C          0.44110       15.35571       -1.31294
C          2.53011       13.12497       -1.38926
C          3.02159       14.85070        0.38806
C          2.04683       12.63457        1.09068
C          1.64052       12.03460       -2.01143
C          3.98044       12.60324       -1.35244
C          1.70097       13.08243        2.51635
H         -1.54201       14.07473        0.03308
H         -0.74143       12.83391       -0.94021
H         -0.60608       12.80178        0.82771
H          0.53052       15.02864        0.78480
H          1.26296       16.08485       -1.38582
H         -0.49410       15.93204       -1.21705
H          0.38747       14.81737       -2.27335
H          2.53242       13.97198       -2.09726
H          3.97859       14.44289        0.74748
H          2.61345       15.47659        1.19641
H          3.24839       15.51818       -0.45828
H          1.37188       11.81172        0.80558
H          3.05575       12.19074        1.11622
H          2.12071       11.63679       -2.92063
H          0.65219       12.40865       -2.31096
H          1.48441       11.18142       -1.33114
H          4.30211       12.32988       -2.37078
H          4.69755       13.34746       -0.97713
H          4.08065       11.69654       -0.73317
H          1.74894       12.22452        3.20711
H          2.40480       13.84047        2.89507
H          0.68702       13.50543        2.59842
