24
3-ETHYL-O-XYLENE.gamout	Energy:    -388.9603946
C          1.57613        0.71426        3.79549
C          0.91186        1.76879        4.69598
C          2.77643        1.23687        3.02558
C          4.06006        1.36073        3.60834
C          2.58981        1.64051        1.69261
C          4.33676        0.94832        5.03709
C          5.12983        1.88554        2.84014
C          3.63972        2.15971        0.93822
C          6.50908        2.02400        3.44043
C          4.90469        2.28002        1.51521
H          1.85798       -0.16186        4.40307
H          0.83027        0.34755        3.07088
H          1.61055        2.14676        5.45952
H          0.03551        1.35031        5.21815
H          0.57318        2.63429        4.10390
H          1.59729        1.53949        1.24309
H          5.14195        0.19534        5.08893
H          3.45965        0.52260        5.53885
H          4.67666        1.80580        5.64387
H          3.47565        2.46694       -0.09819
H          6.50497        2.67262        4.33344
H          7.21668        2.45648        2.71765
H          6.91542        1.05015        3.76436
H          5.73537        2.68504        0.92963
