17
3-ETHYLPYRIDINE.gamout	Energy:    -326.4666897
C          1.85547        2.14865       -0.98866
C          2.67295        1.63741        0.20867
C          2.95451        0.15313        0.15055
C          4.02727       -0.37268       -0.58390
C          2.12781       -0.77415        0.80858
C          4.21837       -1.75429       -0.63109
N          2.29822       -2.09690        0.77146
C          3.32343       -2.57538        0.06299
H          1.67475        3.23297       -0.90927
H          2.38048        1.96148       -1.93968
H          0.87725        1.64418       -1.04627
H          2.13255        1.86729        1.14255
H          3.62862        2.18770        0.25828
H          4.71192        0.29916       -1.11174
H          1.28021       -0.41025        1.40535
H          5.04855       -2.19108       -1.19211
H          3.44498       -3.66555        0.04681
