19
3-ETHYLCYCLOPENTENE.gamout	Energy:    -273.5597309
C          2.13108        3.28948        0.87670
C          2.76394        1.93566        1.21070
C          2.54892        1.43156        2.65239
C          1.07934        1.10354        3.03869
C          2.96746        2.39040        3.75155
C          0.94453        1.45779        4.54101
C          2.10171        2.40399        4.77218
H          2.33584        3.56852       -0.16959
H          1.03620        3.28115        1.00420
H          2.52836        4.09070        1.52121
H          2.38793        1.16703        0.51123
H          3.85205        1.99524        1.02597
H          3.16150        0.51205        2.75418
H          0.39716        1.74407        2.45586
H          0.80969        0.05993        2.81367
H          3.90421        2.95537        3.71710
H         -0.03487        1.90168        4.79052
H          1.04660        0.56329        5.18632
H          2.22309        2.98076        5.69381
