29
3-ETHYLHEPTANE.gamout	Energy:    -354.4941772
C          3.50827        1.88868        2.05608
C          2.15587        2.41334        2.58489
C          2.33406        3.73727        3.35961
C          1.12841        2.56623        1.44250
C          4.43782        1.29008        3.12085
C          1.15739        4.13067        4.25694
C          0.57892        1.25122        0.88320
C          5.74928        0.70630        2.57366
C          6.71632        1.73337        1.97823
H          4.01717        2.71596        1.52766
H          3.32543        1.11148        1.29325
H          1.75611        1.66039        3.29404
H          2.53259        4.54686        2.63209
H          3.23933        3.66843        3.98627
H          0.27764        3.17134        1.79938
H          1.59330        3.15229        0.62747
H          3.89049        0.48976        3.65141
H          4.68068        2.04974        3.88697
H          1.35940        5.07702        4.78474
H          0.22348        4.26935        3.68789
H          0.96483        3.35957        5.02240
H          0.06965        0.66552        1.66749
H          1.37090        0.61265        0.45855
H         -0.15402        1.43477        0.08052
H          6.26040        0.16883        3.39207
H          5.51424       -0.05892        1.80986
H          6.29192        2.24255        1.09746
H          7.65622        1.25550        1.65681
H          6.97784        2.51344        2.71454
