19
3-HEXANONE.gamout	Energy:    -310.6669064
O         -0.67507       -1.29526        0.03767
C          0.80468        0.58881       -0.00389
C          1.98602       -0.38070        0.01179
C         -0.56135       -0.08866        0.01202
C         -1.77918        0.82975       -0.00559
C          3.34344        0.32334       -0.00515
C         -3.11161        0.08834        0.01183
H          0.84640        1.24724       -0.89290
H          0.85009        1.28114        0.85881
H          1.90184       -1.02865        0.90013
H          1.89693       -1.06090       -0.85159
H         -1.69345        1.48202       -0.89491
H         -1.69057        1.51796        0.85594
H          4.17036       -0.40484        0.00544
H          3.47013        0.98159        0.87139
H          3.46453        0.94918       -0.90591
H         -3.95502        0.79625       -0.00066
H         -3.20451       -0.57756       -0.85947
H         -3.20063       -0.54222        0.90936
