19
3-HEPTYNE.gamout	Energy:    -273.5254520
C          5.69568        2.39071        1.41854
C          4.23219        2.30949        1.44963
C          3.01989        2.25376        1.49316
C          6.30646        3.30541        2.50135
C          1.55778        2.15395        1.52714
C          5.90537        4.77444        2.37265
C          1.01766        0.80943        1.01323
H          6.11204        1.37309        1.52802
H          6.01901        2.74201        0.42048
H          7.40495        3.21254        2.44193
H          6.01263        2.92323        3.49432
H          1.20877        2.31990        2.56270
H          1.12474        2.97820        0.93151
H          4.81230        4.89742        2.43829
H          6.22908        5.19538        1.40524
H          6.36194        5.38338        3.16963
H          1.40254       -0.02763        1.61658
H         -0.08291        0.79022        1.06109
H          1.31871        0.63501       -0.03173
