16
3-HEXYNE.gamout	Energy:    -234.2690214
C          1.87304        2.30195        1.24680
C          0.72177        3.20512        1.33021
C          1.04337        4.65622        0.93390
C          2.83371        1.56390        1.17160
C          4.00397        0.68594        1.08350
C          5.34397        1.44108        1.06592
H          0.32006        3.18577        2.35988
H         -0.08835        2.81869        0.68503
H          0.14403        5.28771        1.01515
H          1.40921        4.71067       -0.10354
H          1.82193        5.08047        1.58727
H          3.92123        0.06193        0.17486
H          3.99082       -0.02010        1.93402
H          5.40030        2.12535        0.20465
H          6.18603        0.73359        0.99889
H          5.47080        2.04144        1.98051
