16
3-HYDROXYBENZOIC_ACID.gamout	Energy:    -495.4207854
C          6.35523        1.87567       -0.63233
C          6.89019        0.60992       -0.33795
C          4.96867        2.03934       -0.70308
O          7.22580        2.89634       -0.83750
C          4.11780        0.94560       -0.48141
C          4.65003       -0.31807       -0.18770
C          2.64913        1.19148       -0.57236
C          6.03840       -0.47251       -0.11878
O          2.14430        2.26244       -0.82264
O          1.90969        0.08507       -0.34503
H          7.97569        0.50013       -0.28670
H          4.52226        3.01168       -0.92998
H          6.73486        3.70698       -1.02926
H          3.98278       -1.16302       -0.01677
H          6.46483       -1.45283        0.10936
H          0.97970        0.35662       -0.42800
