32
3-METHYL-3-ETHYLHEPTANE.gamout	Energy:    -393.7476158
C          0.82248        2.29634        2.11042
C          2.08186        1.63366        2.67150
C          3.37764        2.09916        1.99300
C          4.63141        1.42895        2.57418
C          6.01006        1.77939        1.94817
C          7.07976        0.99346        2.75555
C          6.04229        1.31657        0.48064
C          6.27966        3.30483        1.98290
C          8.54967        1.20977        2.38264
C          6.29322        3.97999        3.35779
H         -0.08458        1.93547        2.62158
H          0.70154        2.08750        1.03358
H          0.85522        3.39311        2.22932
H          2.14735        1.83322        3.75730
H          1.99402        0.53580        2.57179
H          3.30311        1.89643        0.90955
H          3.45284        3.19697        2.09310
H          4.67125        1.65071        3.65555
H          4.50356        0.33265        2.50613
H          6.84521       -0.08190        2.65877
H          6.95101        1.22485        3.82695
H          5.29195        1.84337       -0.12906
H          5.83989        0.23553        0.40328
H          7.02220        1.50789        0.01687
H          7.24400        3.49481        1.48243
H          5.52477        3.80284        1.35080
H          9.19662        0.56797        3.00166
H          8.87353        2.25029        2.54705
H          8.76020        0.96090        1.32993
H          5.32858        3.88115        3.88187
H          6.49582        5.05793        3.25318
H          7.07045        3.56794        4.02218
