13
3-METHYL-1-BUTYNE.gamout	Energy:    -195.0024221
C          3.07688        2.17199        0.99014
C          1.74789        2.16242        1.61858
C          0.95993        0.89614        1.23133
C          0.96396        3.44551        1.28173
C          4.16444        2.18025        0.45416
H          1.90419        2.14040        2.71364
H         -0.01308        0.87604        1.74855
H          0.77201        0.86993        0.14588
H          1.51243       -0.01669        1.50108
H          0.77657        3.51498        0.19812
H         -0.00911        3.44705        1.79914
H          1.51868        4.34543        1.58776
H          5.12913        2.18739       -0.01660
