18
3-METHYL-TRANS-2-PENTENE.gamout	Energy:    -235.5101188
C          3.87124        3.06815        2.15835
C          2.42342        2.64290        1.99663
C          1.94999        1.57895        2.67294
C          1.59972        3.48712        1.05405
C          4.73164        2.89685        0.89593
C          0.56831        0.99113        2.65244
H          3.90216        4.13175        2.46458
H          4.32599        2.49439        2.98295
H          2.65733        1.05872        3.33304
H          0.53943        3.20122        1.03287
H          1.97999        3.42341        0.01945
H          1.65501        4.55292        1.34022
H          4.36235        3.50831        0.05660
H          4.74008        1.84535        0.56458
H          5.77421        3.19964        1.08678
H          0.59177       -0.06155        2.31686
H          0.12928        0.98043        3.66655
H         -0.12609        1.53242        1.99399
