16
3-METHYLCYCLOPENTENE.gamout	Energy:    -234.3054521
C          0.63182        2.30843        2.08446
C          1.78899        1.30522        2.04460
C          2.53382        1.12833        3.39594
C          4.01748        0.87183        3.03257
C          4.12397        1.44095        1.63634
C          2.91889        1.67113        1.10073
H          0.98917        3.31178        2.37241
H          0.14098        2.39482        1.10066
H         -0.13728        2.00179        2.81296
H          1.37333        0.32776        1.72198
H          2.45984        2.07131        3.96553
H          2.09911        0.33617        4.02560
H          4.71967        1.33589        3.74669
H          4.25822       -0.20945        3.02573
H          5.07899        1.59435        1.12534
H          2.74097        2.04148        0.08635
