20
3-METHYLPENTANE.gamout	Energy:    -236.7292353
C          2.10772        2.60198        1.47583
C          2.08232        2.04139        2.91284
C          3.51028        2.01475        3.49745
C          1.40163        0.66771        2.98872
C          0.73726        2.82879        0.83311
C          3.60878        1.61701        4.97210
H          2.66008        3.55868        1.48892
H          2.70593        1.92139        0.84057
H          1.48969        2.74661        3.52990
H          4.13099        1.33157        2.88698
H          3.95380        3.01782        3.36629
H          1.95437       -0.07873        2.39035
H          0.36896        0.69924        2.60827
H          1.35331        0.29413        4.02312
H          0.09296        3.45536        1.47376
H          0.83471        3.34095       -0.13781
H          0.20245        1.88308        0.65071
H          2.94739        2.23967        5.59910
H          3.32805        0.56491        5.13993
H          4.63619        1.74392        5.35058
