32
3-METHYLNONANE.gamout	Energy:    -393.7529458
C          4.06327        2.30231        0.87410
C          2.55855        2.13627        1.17995
C          1.94264        3.40429        1.80068
C          2.27196        0.87847        2.01226
C          4.99314        2.55532        2.06999
C          0.41262        3.42038        1.85224
C          6.46270        2.73371        1.66423
C          7.41521        3.01296        2.83422
C          8.87723        3.20124        2.41400
C          9.82083        3.50486        3.57927
H          4.18299        3.13110        0.15233
H          4.40969        1.39674        0.34237
H          2.06610        1.99206        0.19903
H          2.33781        3.54279        2.82348
H          2.28981        4.27946        1.22248
H          2.74839       -0.00933        1.56508
H          1.19264        0.67185        2.07608
H          2.64967        0.97606        3.04403
H          4.91625        1.71776        2.78673
H          4.66099        3.45408        2.61997
H         -0.02619        3.29218        0.84759
H          0.04174        4.37617        2.25561
H          0.00976        2.61904        2.49267
H          6.80410        1.82872        1.12628
H          6.53917        3.56002        0.93196
H          7.07421        3.91539        3.37680
H          7.35063        2.18462        3.56548
H          9.22314        2.29362        1.88520
H          8.93905        4.01872        1.67155
H         10.85837        3.63390        3.23230
H          9.52808        4.43121        4.10261
H          9.81932        2.69154        4.32528
