21
3-METHYL-1-HEXENE.gamout	Energy:    -274.7576623
C          2.63210        0.98798        3.36499
C          3.44383        1.25306        2.06985
C          4.20311        2.55771        2.12048
C          2.56967        1.17257        0.80466
C          1.60216        2.05185        3.76811
C          5.53127        2.67666        2.21595
C          0.79956        1.65496        5.00966
H          2.11339        0.01791        3.24797
H          3.34565        0.85508        4.19765
H          4.19362        0.44386        2.00664
H          3.59715        3.47243        2.06619
H          2.06362        0.19507        0.73827
H          1.78986        1.95232        0.79302
H          3.17820        1.30216       -0.10432
H          2.11371        3.01120        3.96022
H          0.90545        2.23940        2.93204
H          6.18231        1.79641        2.26539
H          6.01834        3.65585        2.24696
H          0.22998        0.72549        4.83906
H          1.46059        1.48083        5.87568
H          0.07899        2.43898        5.29441
