24
3-METHYL-3-HEXANOL.gamout	Energy:    -351.1161733
C          0.65990        1.47031        0.73259
C          0.48966        0.12425        0.02237
C          1.60770       -0.87286        0.41856
C          3.03216       -0.43853        0.06924
C         -0.88478       -0.51474        0.33883
C         -2.11634        0.27313       -0.11928
C         -3.42691       -0.48497        0.10326
O          0.58026        0.42013       -1.37648
H          1.62825        1.92483        0.47822
H         -0.12442        2.17477        0.42051
H          0.60574        1.34670        1.82564
H          1.52697       -1.08654        1.49903
H          1.38974       -1.83132       -0.09038
H          3.10493       -0.16977       -0.99586
H          3.35362        0.43790        0.65383
H          3.75077       -1.24884        0.27156
H         -0.90820       -1.51370       -0.13994
H         -0.94617       -0.71056        1.42489
H         -2.16543        1.24044        0.40972
H         -1.99809        0.52096       -1.18731
H         -3.43597       -1.44432       -0.44257
H         -3.58380       -0.71597        1.17092
H         -4.29513        0.10014       -0.24085
H          0.49661       -0.41219       -1.86249
