18
3-METHYL-2-BUTANOL.gamout	Energy:    -272.6020444
C          1.87145        1.94098        3.40361
C          2.73705        1.88515        2.12360
C          1.93939        1.46574        0.88164
C          3.95297        0.97022        2.32768
C          0.65370        2.86247        3.29852
O          2.65383        2.29068        4.53931
H          1.51705        0.91524        3.61658
H          3.11119        2.91662        1.95505
H          1.14173        2.18020        0.62684
H          1.47150        0.47608        1.02812
H          2.60188        1.38666        0.00445
H          4.51414        1.25888        3.22735
H          4.62965        1.01292        1.45901
H          3.63529       -0.07951        2.45513
H          0.95861        3.88776        3.01989
H         -0.07469        2.51473        2.55037
H          0.14610        2.91121        4.27398
H          2.96791        3.19727        4.41145
