16
3-METHYL-1,4-PENTADIENE.gamout	Energy:    -234.2755336
C          1.78662        1.28507        1.75870
C          3.03434        1.70158        1.01027
C          4.27336        1.26203        1.76002
C          3.04870        3.22955        0.78664
C          0.82810        0.48453        1.28529
C          5.21718        0.44340        1.28801
H          1.68453        1.69855        2.77208
H          3.03009        1.20431        0.02442
H          4.38203        1.67404        2.77330
H          3.05278        3.77155        1.74812
H          3.94646        3.53505        0.22618
H          2.15788        3.55157        0.22436
H          0.88928        0.04815        0.28213
H         -0.05377        0.23187        1.88115
H          5.14890        0.00766        0.28504
H          6.09353        0.17481        1.88503
