15
3-METHYL-1-BUTENE.gamout	Energy:    -196.2473578
C          3.41529        2.72858        1.29467
C          2.13289        2.02255        1.67432
C          2.10569        0.53377        1.31754
C          0.91937        2.76540        1.08388
C          4.46997        2.21521        0.65328
H          3.45028        3.78888        1.58158
H          2.05211        2.10412        2.77736
H          1.16373        0.07196        1.65444
H          2.18016        0.37987        0.22769
H          2.93549       -0.01316        1.79286
H          0.92831        2.71705       -0.01801
H         -0.02555        2.32040        1.43648
H          0.91650        3.82932        1.37299
H          5.34571        2.83099        0.42876
H          4.51034        1.17077        0.33128
