24
3-METHYL-2-ISOPROPYL-1-BUTENE.gamout	Energy:    -314.0146727
C          0.06307       19.32733       -0.64370
C          1.34954       19.80036        0.05728
C          1.28028       21.28517        0.43226
C          1.67825       18.91106        1.26876
C          2.26956       22.23889       -0.22961
C          0.38048       21.74451        1.31377
C          3.72767       21.91235        0.14119
C          2.08842       22.29969       -1.75730
H          0.15197       18.27480       -0.96198
H         -0.80735       19.40262        0.02833
H         -0.15387       19.93495       -1.53644
H          2.17314       19.67413       -0.66591
H          2.61787       19.21964        1.75436
H          1.78410       17.85614        0.96396
H          0.88169       18.96138        2.02915
H          2.04918       23.24658        0.16479
H          0.33371       22.80588        1.57726
H         -0.34320       21.08831        1.80752
H          4.41665       22.64967       -0.30373
H          3.87630       21.92744        1.23277
H          4.03242       20.91817       -0.22654
H          2.77608       23.03989       -2.19929
H          1.06039       22.58887       -2.02819
H          2.30298       21.32966       -2.23675
