32
3-METHYL-5-ETHYLHEPTANE.gamout	Energy:    -393.7451978
C          3.97886        3.96943        1.46755
C          2.79986        3.30600        2.21625
C          2.63503        1.81276        1.87162
C          1.49806        4.12183        2.04831
C          5.40771        3.49338        1.84456
C          1.52298        1.08470        2.63198
C          0.90026        4.16598        0.63866
C          6.35937        4.69990        1.97968
C          5.95314        2.45925        0.85021
C          7.77943        4.37992        2.45442
H          3.83778        3.85477        0.37699
H          3.91299        5.05430        1.65613
H          3.04514        3.35342        3.29558
H          2.47323        1.69812        0.78400
H          3.58818        1.30153        2.08396
H          0.73833        3.73259        2.74720
H          1.69998        5.15514        2.38193
H          5.35613        3.01172        2.84114
H          0.52036        1.45669        2.36690
H          1.53848        0.00548        2.41077
H          1.63891        1.19877        3.72390
H          0.63632        3.16217        0.26685
H         -0.02076        4.77002        0.62850
H          1.59235        4.61459       -0.09269
H          6.40516        5.22560        1.00665
H          5.90356        5.41820        2.68372
H          6.09571        2.91405       -0.14606
H          6.92278        2.05046        1.17224
H          5.26509        1.61008        0.72725
H          8.34933        5.30562        2.63218
H          7.76821        3.81033        3.39981
H          8.34389        3.78601        1.71779
