19
3-METHYLCYCLOHEXENE.gamout	Energy:    -273.5696197
C          0.59536        2.45279        1.26359
C          2.01187        2.54709        1.84849
C          2.87996        3.56928        1.09341
C          2.69054        1.19340        1.89557
C          4.35028        3.49028        1.51872
C          3.98391        0.99205        1.60770
C          4.93538        2.10014        1.22934
H          0.61849        2.08051        0.22520
H         -0.03765        1.76702        1.85087
H          0.10377        3.43976        1.25713
H          1.90425        2.90082        2.89491
H          2.80736        3.36949        0.00759
H          2.47930        4.58558        1.24980
H          2.06448        0.33920        2.18179
H          4.94600        4.26632        1.00987
H          4.42283        3.70030        2.60124
H          4.39095       -0.02546        1.64406
H          5.19286        2.00680        0.15548
H          5.89289        1.96775        1.76474
