24
3-METHYL-TRANS-3-HEPTENE.gamout	Energy:    -314.0222130
C          1.12971       -0.33317        0.40173
C          2.58433       -0.03527        0.04498
C          3.05783       -0.40036       -1.35064
C          2.25252       -0.97533       -2.26373
C          2.57671       -1.37751       -3.67809
C          1.74791       -0.61929       -4.73158
C          2.02425       -1.08179       -6.16316
C          4.50903       -0.05945       -1.59556
H          0.91326       -0.02224        1.43643
H          0.90276       -1.40894        0.32519
H          0.42947        0.20413       -0.25835
H          3.24895       -0.54308        0.77145
H          2.78240        1.04373        0.19852
H          1.21486       -1.17637       -1.97361
H          2.37537       -2.46022       -3.79801
H          3.64814       -1.24284       -3.89717
H          1.95572        0.46174       -4.64040
H          0.67307       -0.74195       -4.50356
H          3.08501       -0.93911       -6.43169
H          1.41852       -0.52208       -6.89431
H          1.79426       -2.15337       -6.29129
H          4.69213        1.01731       -1.42809
H          4.84779       -0.30300       -2.61070
H          5.16238       -0.59738       -0.88469
