21
3-METHYL-CIS-3-HEXENE.gamout	Energy:    -274.7656394
C          3.04587        1.58267        2.37752
C          3.79123        2.66453        2.08105
C          3.21400        4.00718        1.67317
C          5.29967        2.59689        2.12539
C          1.54656        1.44843        2.39605
C          3.26336        4.27372        0.15940
C          0.99745        1.04219        3.77195
H          3.58534        0.66636        2.65683
H          2.17198        4.09594        2.01753
H          3.77672        4.80425        2.19331
H          5.70581        3.31279        2.86328
H          5.74789        2.86697        1.15242
H          5.65875        1.59150        2.39218
H          1.06239        2.38119        2.06557
H          1.25136        0.67724        1.65873
H          2.86456        5.27370       -0.07853
H          2.66531        3.53054       -0.39277
H          4.29191        4.22716       -0.23414
H         -0.09489        0.89641        3.74099
H          1.21619        1.81135        4.53092
H          1.44964        0.09821        4.12077
