24
3-METHYL-TRANS-2-HEPTENE.gamout	Energy:    -314.0227837
C          0.24355       18.88257       -0.66278
C          1.21485       19.79886        0.08332
C          0.95082       21.28966       -0.15290
C          1.93130       22.20971        0.59761
C          1.70964       23.69334        0.37425
C          2.61203       24.42114       -0.31069
C          0.44037       24.25574        0.96828
C          2.57768       25.88414       -0.64707
H          0.45849       17.81885       -0.47031
H         -0.80033       19.07027       -0.35782
H          0.29998       19.04067       -1.75335
H          2.25164       19.56024       -0.21818
H          1.16042       19.59037        1.16788
H         -0.08747       21.51925        0.14805
H          1.01194       21.50851       -1.23478
H          2.96088       21.94567        0.30101
H          1.85455       21.99392        1.68141
H          3.49823       23.88821       -0.68129
H          0.38045       24.02302        2.04672
H          0.35699       25.34509        0.85603
H         -0.45489       23.80628        0.50385
H          1.69001       26.40144       -0.25554
H          3.46928       26.40208       -0.24946
H          2.59602       26.03871       -1.74132
