21
3-METHYL-2-ETHYL-1-BUTENE.gamout	Energy:    -274.7612752
C          1.95697        1.35740        2.24301
C          3.34619        1.71015        1.71111
C          4.47934        1.42527        2.67915
C          3.54648        2.23677        0.49455
C          1.42020        2.47421        3.16139
C          0.92932        1.02044        1.15529
C          5.88293        1.85537        2.25980
H          2.07965        0.45319        2.86987
H          4.23147        1.89066        3.65185
H          4.47572        0.33683        2.88413
H          4.54293        2.50851        0.13920
H          2.72313        2.42165       -0.19934
H          0.46238        2.18000        3.62229
H          1.24954        3.39813        2.58402
H          2.11875        2.71615        3.97813
H         -0.01119        0.66855        1.60989
H          1.29923        0.23245        0.48083
H          0.68224        1.90206        0.54116
H          5.94056        2.94300        2.09048
H          6.20375        1.35639        1.33084
H          6.61589        1.60005        3.04166
