14
3-METHYLPYRIDINE.gamout	Energy:    -287.2108717
C          2.93353        1.69744       -0.23695
C          3.09175        0.19972       -0.16045
C          4.33557       -0.42401       -0.34278
C          1.99796       -0.64276        0.09843
C          4.42730       -1.81320       -0.26076
N          2.07172       -1.97338        0.17972
C          3.26405       -2.54497        0.00331
H          3.54286        2.20561        0.52969
H          3.25589        2.08583       -1.21772
H          1.88553        1.99689       -0.08449
H          5.22688        0.17794       -0.54800
H          1.00275       -0.20293        0.24821
H          5.38342       -2.32490       -0.39883
H          3.30039       -3.63925        0.07424
