19
3-METHYL-1,5-HEXADIENE.gamout	Energy:    -273.5283630
C          3.48873        0.94232        1.91512
C          2.91947        2.12302        1.08148
C          1.45720        2.38060        1.41447
C          3.77302        3.39450        1.22453
C          4.85433        0.48680        1.48157
C          0.98232        2.76257        2.60453
C          5.94041        0.42396        2.25844
H          2.78454        0.09493        1.82290
H          3.50321        1.21921        2.98341
H          2.96186        1.81407        0.02149
H          0.74071        2.23173        0.59653
H          3.77451        3.75199        2.26764
H          3.37903        4.20794        0.59493
H          4.81845        3.20664        0.93291
H          4.93922        0.17007        0.43230
H         -0.08788        2.92513        2.76309
H          1.63409        2.93266        3.46865
H          5.91143        0.72704        3.31103
H          6.89937        0.06331        1.87439
