16
3-METHYL-1,2-PENTADIENE.gamout	Energy:    -234.2702664
C          0.77254        0.05430        0.07225
C          2.08253        0.00565        0.03178
C          3.39777       -0.03247        0.00050
C          4.17182       -0.98912       -0.89246
C          3.33157       -1.91863       -1.76524
C          4.23317        0.88894        0.86585
H          0.19971        0.71378       -0.59185
H          0.19451       -0.56299        0.77150
H          4.84352       -1.58714       -0.24703
H          4.84711       -0.38401       -1.52746
H          2.68020       -2.56204       -1.15290
H          3.97562       -2.57065       -2.37652
H          2.68215       -1.34697       -2.44698
H          3.60943        1.54681        1.48716
H          4.88943        1.52096        0.24142
H          4.89066        0.30269        1.53219
