21
3-METHYL-3-PENTANOL.gamout	Energy:    -311.8601241
C          0.01413        1.53075       -0.44260
C          0.00027        0.06327       -0.00509
C          1.25980       -0.29459        0.82330
C          2.59440       -0.13509        0.09257
C         -1.26032       -0.26973        0.83211
C         -2.59605       -0.10090        0.10567
O         -0.01121       -0.69517       -1.22007
H          0.88967        1.73595       -1.07536
H         -0.88062        1.76724       -1.03642
H          0.04422        2.20090        0.43067
H          1.25713        0.30437        1.75111
H          1.15140       -1.34642        1.15063
H          2.57404       -0.67222       -0.86819
H          2.82706        0.92003       -0.12150
H          3.42317       -0.53798        0.69643
H         -1.16420       -1.31921        1.17040
H         -1.24576        0.33987        1.75287
H         -2.81173        0.95381       -0.12728
H         -2.59149       -0.65621       -0.84485
H         -3.42791       -0.47773        0.72200
H         -0.01196       -1.63392       -0.98521
