16
3-METHYL-1-PENTYNE.gamout	Energy:    -234.2587895
C          0.93003        3.34343        1.50115
C          1.79970        2.12078        1.79157
C          3.18198        2.13465        1.09550
C          3.93657        0.80815        1.31209
C          3.99913        3.27956        1.52269
C          4.66938        4.22085        1.89052
H          1.42337        4.27206        1.82926
H          0.72062        3.43979        0.42222
H         -0.03715        3.27157        2.02393
H          1.27439        1.20497        1.46753
H          1.95726        2.01903        2.87995
H          3.00466        2.25000        0.00852
H          4.91011        0.81602        0.79882
H          4.11905        0.63458        2.38469
H          3.34623       -0.03622        0.92139
H          5.26593        5.05335        2.21301
