21
3-METHYL-2-PENTANOL.gamout	Energy:    -311.8562334
C          0.32025        1.31697       -0.96048
C          0.28115        0.38241        0.25793
C         -1.08109       -0.34604        0.39671
C         -2.26176        0.57578        0.70763
O         -1.36004       -1.16751       -0.73182
C          1.42651       -0.64984        0.24019
C          2.84158       -0.06806        0.27093
H          1.27981        1.85101       -1.02748
H          0.20148        0.74818       -1.89935
H         -0.46957        2.08431       -0.92302
H          0.39973        1.00490        1.16614
H         -0.97964       -1.05963        1.23297
H         -2.45523        1.28008       -0.11968
H         -3.17358       -0.02272        0.85719
H         -2.08176        1.17119        1.61750
H         -1.57314       -0.58876       -1.47635
H          1.29747       -1.31706        1.11125
H          1.29757       -1.29496       -0.64614
H          3.06703        0.53251       -0.62523
H          2.99198        0.58177        1.15044
H          3.59527       -0.87062        0.31974
