26
3-METHYL-3-ETHYLPENTANE.gamout	Energy:    -315.2339604
C          3.93022        2.04794        1.08749
C          3.30837        3.00530        2.14448
C          3.90734        4.42721        1.94828
C          1.77021        3.07149        1.92078
C          3.61281        2.49152        3.56800
C          3.41791        0.60367        1.05215
C          5.42992        4.57544        2.04510
C          0.96575        4.02619        2.80983
H          3.78577        2.50015        0.08878
H          5.02103        2.01663        1.24875
H          3.57726        4.80425        0.96230
H          3.45423        5.10080        2.69515
H          1.35831        2.05667        2.05189
H          1.58893        3.33588        0.86226
H          3.08196        1.54908        3.77723
H          3.30478        3.21887        4.33619
H          4.68874        2.30101        3.71036
H          3.97236        0.02138        0.29809
H          2.35071        0.53975        0.78767
H          3.55387        0.09285        2.01911
H          5.96161        4.01998        1.25648
H          5.81980        4.22974        3.01617
H          5.71487        5.63512        1.94032
H          1.09661        3.80644        3.88197
H         -0.11067        3.93409        2.59080
H          1.23717        5.08188        2.65138
