16
3-METHYL-CIS-1,3-PENTADIENE.gamout	Energy:    -234.2848581
C          1.28395        2.54874        1.08376
C          2.61614        1.92021        1.22726
C          3.76569        2.59299        1.45333
C          2.60692        0.40867        1.14487
C          0.96870        3.63179        0.35789
C          3.96668        4.06775        1.64213
H          0.46692        2.02026        1.59633
H          4.67635        1.98568        1.54120
H          3.60966       -0.01477        1.30665
H          2.24255        0.06388        0.16093
H          1.92662       -0.02482        1.90012
H          1.71553        4.17492       -0.22817
H         -0.06128        3.99749        0.30866
H          4.63503        4.25819        2.49976
H          3.02195        4.60453        1.81012
H          4.45689        4.52516        0.76247
