32
3-METHYL-4-ETHYLHEPTANE.gamout	Energy:    -393.7453114
C          0.59625       21.18747        1.42093
C          1.74837       22.16586        1.19021
C          1.68943       22.86495       -0.17606
C          2.82553       23.89165       -0.43370
C          3.49284       23.73790       -1.83313
C          2.37087       25.34872       -0.19576
C          4.28739       22.42391       -1.99482
C          2.50692       23.90697       -2.99940
C          5.48894       22.25544       -1.06013
C          1.93889       25.67911        1.23508
H          0.67416       20.69103        2.40208
H         -0.38005       21.70092        1.38616
H          0.57691       20.39726        0.65056
H          2.71011       21.62716        1.27439
H          1.75632       22.91982        1.99628
H          0.70779       23.36265       -0.28504
H          1.70098       22.07845       -0.95049
H          3.62108       23.69545        0.30807
H          4.23127       24.55944       -1.91229
H          3.20092       26.02158       -0.47810
H          1.53847       25.59080       -0.88074
H          3.60677       21.56023       -1.88158
H          4.64827       22.37681       -3.03795
H          3.03780       23.87107       -3.96505
H          1.97160       24.86832       -2.95756
H          1.74843       23.10610       -3.01770
H          6.05111       21.33970       -1.30518
H          6.18600       23.10628       -1.14935
H          5.19398       22.18031       -0.00122
H          1.69383       26.74931        1.33483
H          1.04423       25.11203        1.53900
H          2.73725       25.45393        1.96295
