21
3-METHYL-CIS-2-HEXENE.gamout	Energy:    -274.7643786
C          3.68916        1.35401        1.27994
C          4.02897        0.85486        2.70072
C          5.24124        1.52349        3.35136
C          3.35241        2.83436        1.17316
C          4.45680        3.73244        0.66858
C          2.14573        3.34089        1.49002
C          0.93329        2.59740        1.97317
H          4.54389        1.13282        0.61582
H          2.84729        0.75210        0.89756
H          3.14650        0.99552        3.34921
H          4.20089       -0.23554        2.64822
H          6.14914        1.40441        2.73502
H          5.07852        2.60315        3.50180
H          5.45352        1.08293        4.33931
H          4.15169        4.79000        0.64995
H          5.36559        3.64975        1.29021
H          4.75754        3.44670       -0.35626
H          2.01223        4.42581        1.38405
H          1.06467        1.50547        1.96664
H          0.66792        2.89247        3.00497
H          0.05241        2.83373        1.34979
