24
3-METHYL-CIS-2-HEPTENE.gamout	Energy:    -314.0226456
C          0.36889       19.86326       -0.67058
C          1.20033       20.75661        0.25182
C          1.19188       22.23296       -0.15823
C          2.03650       23.13165        0.76543
C          1.99284       24.60360        0.40457
C          2.96389       25.24279       -0.27483
C          0.75402       25.34275        0.85370
C          4.25505       24.68776       -0.80414
H          0.39776       18.80941       -0.34908
H         -0.68903       20.17657       -0.68644
H          0.73866       19.90428       -1.70926
H          2.24420       20.39229        0.27419
H          0.82621       20.66586        1.28830
H          0.14829       22.59633       -0.17783
H          1.56717       22.33029       -1.19314
H          3.07457       22.76252        0.76320
H          1.67182       23.01069        1.80279
H          2.80676       26.31041       -0.47995
H          0.65980       25.32476        1.95493
H          0.76224       26.39460        0.52967
H         -0.16501       24.87574        0.45675
H          4.40497       23.62528       -0.56375
H          4.30558       24.78806       -1.90368
H          5.11982       25.24818       -0.40508
