26
3-METHYLHEPTANE.gamout	Energy:    -315.2418429
C          4.62931        2.66382        1.92096
C          3.33903        1.97120        1.43803
C          2.11247        2.84981        1.75805
C          3.19647        0.55206        2.00662
C          5.94458        2.01257        1.47940
C          0.78599        2.37593        1.15900
C          7.18994        2.79236        1.91655
C          8.50408        2.14249        1.47911
H          4.61942        3.70966        1.56211
H          4.60755        2.72912        3.02627
H          3.40405        1.88833        0.33431
H          2.01288        2.93557        2.85693
H          2.31806        3.87420        1.39843
H          3.12258        0.57639        3.10860
H          2.29705        0.04529        1.62366
H          4.05789       -0.08167        1.74529
H          6.01323        0.98457        1.87761
H          5.94810        1.90911        0.37731
H         -0.02183        3.09513        1.37129
H          0.85632        2.27223        0.06249
H          0.46744        1.40201        1.56395
H          7.13572        3.82156        1.51617
H          7.18022        2.89997        3.01712
H          8.56108        2.05307        0.38080
H          9.37690        2.72793        1.81102
H          8.60658        1.12640        1.89668
