24
3-METHYL-2-ETHYL-1-PENTENE.gamout	Energy:    -314.0172108
C          1.06996        0.99178        0.94090
C          2.01430        1.59306        1.98147
C          1.74626        3.02502        2.40491
C          2.70288        3.63741        3.42736
C          0.72907        3.74873        1.91312
C          2.69390        2.90775        4.79072
C          4.13944        3.75322        2.88308
C          1.33107        2.86269        5.48287
H          0.02831        0.96743        1.30023
H          1.36458       -0.04328        0.70536
H          1.08447        1.56450       -0.00056
H          2.00664        0.95393        2.88398
H          3.05162        1.52716        1.60507
H          2.34446        4.66587        3.61308
H          0.02892        3.35400        1.17324
H          0.56409        4.78024        2.23933
H          3.41966        3.41786        5.44933
H          3.08660        1.88255        4.66427
H          4.77406        4.31892        3.58500
H          4.15671        4.27767        1.91422
H          4.61011        2.76636        2.74105
H          0.95126        3.87899        5.68334
H          1.39284        2.33420        6.44798
H          0.57566        2.35083        4.86511
