25
3-NONYNE.gamout	Energy:    -352.0369358
C          4.52179        2.11650        2.46551
C          4.49178        3.33353        1.51772
C          5.62915        4.24011        1.69252
C          3.37706        1.11850        2.24809
C          6.57741        4.97943        1.86094
C          1.97558        1.64174        2.58802
C          7.72902        5.86838        2.04073
C          0.88267        0.58306        2.42850
C          8.82904        5.68230        0.98312
H          5.48630        1.59866        2.33098
H          4.51059        2.47735        3.50927
H          4.46676        2.97743        0.47065
H          3.55675        3.90391        1.66150
H          3.57548        0.22256        2.86381
H          3.39128        0.76960        1.19780
H          1.73160        2.51005        1.95062
H          1.97445        2.01875        3.62758
H          7.38055        6.91730        2.03005
H          8.15351        5.70671        3.04838
H          0.83519        0.20745        1.39214
H         -0.11188        0.98505        2.68113
H          1.06647       -0.28566        3.08337
H          9.66597        6.37424        1.16926
H          9.22364        4.65424        0.99885
H          8.44124        5.87674       -0.02914
