20
3-PHENYLPROPIONATE-1.gamout	Energy:    -498.2214156
O          3.93057       -0.03599       -1.10815
O          3.43647        0.01265        1.10356
C          0.69637        0.06221        0.72599
C         -0.76961        0.03368        0.37823
C          1.63160       -0.01229       -0.49089
C         -1.49186        1.21604        0.13423
C         -1.46400       -1.18242        0.24318
C         -2.83848        1.18733       -0.23438
C         -2.80890       -1.21971       -0.12926
C         -3.50736       -0.03274       -0.37240
C          3.17189       -0.00989       -0.11929
H          0.94395        0.97689        1.28818
H          0.94992       -0.77098        1.40039
H          1.44559        0.83217       -1.17953
H          1.42931       -0.92406       -1.08339
H         -0.97700        2.17614        0.23385
H         -0.92882       -2.11745        0.43387
H         -3.37101        2.12613       -0.41412
H         -3.31679       -2.18341       -0.23160
H         -4.56104       -0.05900       -0.66470
