22
3-PHENYL-1-PROPANOL.gamout	Energy:    -424.8239703
C         -0.87293        1.16243       -0.47047
C          0.51083        0.96330       -0.45278
C         -1.73948        0.09123       -0.23231
C         -1.21052       -1.17750        0.02517
C          0.17377       -1.37105        0.04224
C          1.05675       -0.30519       -0.19635
H         -1.27560        2.15978       -0.66846
H         -2.82187        0.24513       -0.24204
H         -1.87909       -2.02083        0.21958
H          0.57755       -2.36728        0.24870
H          1.18091        1.80916       -0.63678
C          2.55392       -0.52720       -0.22252
C          3.08573       -0.93012       -1.60884
H          2.82370       -1.31171        0.50597
H          3.06601        0.39333        0.10898
C          4.60097       -1.12726       -1.64807
H          2.80094       -0.15481       -2.34543
H          2.60174       -1.86374       -1.94363
O          5.07030       -1.54102       -2.91389
H          4.89315       -1.92143       -0.93964
H          5.10919       -0.20030       -1.30508
H          4.83880       -0.85728       -3.55659
