22
4,4-DIMETHYLCYCLOHEXENE.gamout	Energy:    -312.8249082
C          0.72934        2.15123        1.42032
C          2.15368        2.12663        1.99786
C          2.28139        0.93330        2.96510
C          2.43542        3.45868        2.73436
C          3.18156        1.98165        0.84690
C          3.85448        3.54542        3.31321
C          4.59016        2.35279        1.23945
C          4.89418        3.05042        2.34245
H          0.57860        3.01960        0.75723
H         -0.02495        2.20806        2.22313
H          0.52244        1.24085        0.83214
H          1.99525       -0.00641        2.46408
H          1.62000        1.05796        3.83966
H          3.31100        0.80881        3.33443
H          1.68891        3.60676        3.53435
H          2.29234        4.28560        2.01577
H          2.87039        2.61189       -0.00969
H          3.16320        0.94498        0.46257
H          3.92816        2.96723        4.25530
H          4.07934        4.58820        3.60124
H          5.39615        2.03341        0.56860
H          5.94353        3.27515        2.56621
