21
4,4-DIMETHYL-1-PENTENE.gamout	Energy:    -274.7590929
C          3.37260        2.62580        2.38029
C          1.93412        2.03258        2.48649
C          3.52220        3.87797        1.56057
C          0.96710        3.05365        3.11581
C          2.00234        0.78493        3.38674
C          1.42175        1.62707        1.09266
C          4.25026        3.98817        0.44446
H          3.72365        2.83422        3.40918
H          4.04167        1.84767        1.97277
H          2.99674        4.76876        1.92867
H         -0.03154        2.60784        3.25726
H          0.83928        3.94591        2.48207
H          1.32525        3.38868        4.10416
H          2.68918        0.02909        2.97040
H          1.00978        0.31534        3.48824
H          2.35769        1.03915        4.39960
H          2.07841        0.87073        0.63034
H          1.37980        2.49129        0.41109
H          0.40909        1.19537        1.15819
H          4.32753        4.93401       -0.10001
H          4.80253        3.13510        0.03440
