32
4,4-DIMETHYLOCTANE.gamout	Energy:    -393.7494567
C          2.45914        2.70063        4.23223
C          3.95399        2.50572        3.86621
C          2.09599        4.17487        3.97341
C          2.23121        2.41108        5.72726
C          1.52652        1.76947        3.41507
C          4.54568        1.09679        4.01451
C          6.43858        1.28901        2.26505
C          6.05194        1.01260        3.71945
C          0.60043        0.91937        1.19267
C          1.58997        1.86041        1.88488
H          4.54415        3.19895        4.49432
H          4.10023        2.85148        2.82892
H          1.03344        4.37084        4.19357
H          2.28197        4.46471        2.92750
H          2.69648        4.84407        4.61139
H          2.88785        3.03353        6.35714
H          2.42346        1.35646        5.97877
H          1.18935        2.63171        6.01090
H          0.48775        1.97455        3.73417
H          1.72372        0.72426        3.71365
H          4.01609        0.39179        3.34784
H          4.37697        0.72861        5.04074
H          7.52039        1.15159        2.10696
H          6.19316        2.31913        1.95997
H          5.91559        0.60503        1.57424
H          6.40377        0.00400        3.99828
H          6.59218        1.71473        4.38181
H          0.79089       -0.13498        1.45782
H          0.66734        1.00227        0.09607
H         -0.44108        1.14510        1.47955
H          1.38661        2.89589        1.56050
H          2.61067        1.62589        1.53548
