19
4,4-DIMETHYLCYCLOPENTENE.gamout	Energy:    -273.5614655
C          7.43424        3.82119        3.07479
C          6.43163        3.24037        4.08875
C          6.87012        3.59510        5.51505
C          4.99605        3.77036        3.75892
C          6.31206        1.69522        3.86792
C          4.37186        2.66744        2.94096
C          5.08809        1.53815        3.00007
H          8.44714        3.41778        3.24230
H          7.13989        3.57539        2.04125
H          7.49151        4.91954        3.15768
H          6.92055        4.68815        5.65699
H          6.16768        3.19248        6.26381
H          7.86985        3.18603        5.74050
H          4.40892        3.94714        4.68111
H          5.02567        4.73816        3.22696
H          6.17684        1.15781        4.82671
H          7.22387        1.27251        3.40856
H          3.42952        2.78601        2.39837
H          4.81730        0.59695        2.51294
