29
4,4-DIMETHYLHEPTANE.gamout	Energy:    -354.4899678
C          4.72916        1.71658        1.65315
C          4.08415        2.66782        2.70133
C          3.01512        3.55808        2.00506
C          5.13168        3.61772        3.31435
C          3.43405        1.85128        3.83764
C          5.95851        0.88469        2.08592
C          1.83841        2.86620        1.30466
C          7.31784        1.50246        1.74062
C          0.84889        3.86469        0.69879
H          3.94433        1.02143        1.31222
H          5.00203        2.31402        0.76309
H          2.60733        4.25167        2.76398
H          3.53164        4.19754        1.26414
H          5.63545        4.21496        2.53615
H          4.65548        4.32333        4.01606
H          5.90564        3.07272        3.87713
H          2.91739        2.51553        4.55093
H          2.69560        1.12915        3.45512
H          4.18652        1.28283        4.40758
H          5.89881       -0.10317        1.59704
H          5.91206        0.67411        3.16873
H          2.21082        2.20121        0.50661
H          1.30104        2.21767        2.01853
H          7.41402        1.66261        0.65310
H          7.46954        2.47696        2.22977
H          8.14609        0.84404        2.05120
H          0.01298        3.35229        0.19508
H          0.41711        4.52337        1.47174
H          1.33677        4.51457       -0.04810
