24
4,4-DIMETHYL-CIS-2-HEXENE.gamout	Energy:    -314.0171769
C          2.64840        2.58400        2.09143
C          1.61937        2.09390        1.38835
C          3.40662        3.88272        1.86352
C          0.91699        0.79735        1.67339
C          4.87189        3.57230        1.42421
C          5.72736        2.72335        2.36848
C          2.76413        4.74503        0.76356
C          3.40225        4.68493        3.18506
H          3.00163        1.99395        2.94849
H          1.23346        2.65883        0.53102
H          1.34671        0.27814        2.54495
H         -0.15821        0.95871        1.87021
H          0.97447        0.11269        0.80809
H          4.82676        3.07293        0.44042
H          5.38007        4.53954        1.25597
H          5.84573        3.18981        3.36005
H          5.30430        1.71744        2.51991
H          6.73873        2.59033        1.95099
H          1.71950        4.99764        1.00621
H          3.31910        5.68974        0.64464
H          2.77197        4.23195       -0.21152
H          3.80947        4.09949        4.02457
H          4.00633        5.60337        3.09020
H          2.37599        4.97983        3.45769
