19
4,4-DIMETHYL-1-PENTYNE.gamout	Energy:    -273.5156280
C          0.00044       19.99741        0.03407
C          1.53842       19.94323        0.00910
C          2.06543       21.41192       -0.01662
C          2.05017       19.22347        1.26938
C          2.00914       19.19523       -1.25081
C          3.52084       21.56249       -0.04147
C          4.72644       21.68890       -0.06148
H         -0.42503       18.98085        0.05239
H         -0.39863       20.51169       -0.85628
H         -0.36864       20.53119        0.92583
H          1.64244       21.92507       -0.89950
H          1.67082       21.94697        0.86646
H          3.15069       19.18881        1.29132
H          1.67543       18.18714        1.30451
H          1.71065       19.73405        2.18636
H          1.63629       19.68290       -2.16732
H          3.10837       19.16346       -1.30941
H          1.63764       18.15716       -1.24916
H          5.79340       21.80685       -0.07964
