24
4,5-DIMETHYL-CIS-2-HEXENE.gamout	Energy:    -314.0171866
C          1.48261        1.08851       -0.72072
C          2.55417        0.20856       -0.14317
C          2.79957       -0.06272        1.14777
C          2.09090        0.45669        2.37805
C          1.54209       -0.71632        3.24353
C          0.88563       -0.23755        4.54694
C          0.55724       -1.58853        2.45202
C          3.05507        1.37185        3.15934
H          0.83984        0.52023       -1.41661
H          1.92633        1.90967       -1.31184
H          0.83327        1.53864        0.04410
H          3.21360       -0.26269       -0.88392
H          3.64355       -0.73254        1.36543
H          1.22269        1.06713        2.07084
H          2.41156       -1.34693        3.51568
H          0.05573        0.46081        4.33879
H          1.59325        0.27371        5.21666
H          0.46585       -1.09023        5.10538
H         -0.34212       -1.01082        2.17449
H          0.22319       -2.45079        3.05211
H          1.00380       -1.97397        1.52315
H          3.91181        0.79961        3.55662
H          2.56003        1.86729        4.00824
H          3.45895        2.15792        2.50238
