32
4,5-DIMETHYLOCTANE.gamout	Energy:    -393.7449988
C          5.41046        1.94795        1.47247
C          3.89161        2.14713        1.76458
C          3.23873        3.13513        0.76050
C          3.10248        0.82925        1.79894
C          6.20505        3.23046        1.80573
C          6.01496        0.74014        2.20486
C          2.30871        4.19919        1.36577
C          7.62224        3.32041        1.22289
C          1.05372        3.68085        2.07077
C          8.33438        4.63062        1.56963
H          5.50656        1.75948        0.38395
H          3.82560        2.59613        2.77570
H          4.02575        3.66951        0.20509
H          2.68320        2.56036       -0.00388
H          2.02730        1.02170        1.92949
H          3.42126        0.17039        2.61949
H          3.22032        0.27049        0.85330
H          6.25733        3.33243        2.90711
H          5.64061        4.11191        1.45603
H          5.58295       -0.21252        1.86607
H          5.85216        0.81379        3.29482
H          7.10105        0.68025        2.03808
H          2.89151        4.82017        2.07144
H          2.00088        4.88152        0.55409
H          8.23745        2.47432        1.57663
H          7.56922        3.21291        0.12355
H          0.42401        3.08318        1.38939
H          0.44020        4.51954        2.43691
H          1.29417        3.05013        2.94199
H          8.43700        4.75741        2.66114
H          7.77947        5.50539        1.18925
H          9.34652        4.66567        1.13622
