24
4,5-DIMETHYL-1-HEXENE.gamout	Energy:    -314.0107214
C          4.06702        3.65768        2.23620
C          2.55267        3.42560        1.99096
C          2.06904        2.08295        2.61132
C          1.73237        4.62569        2.49180
C          4.67375        4.79640        1.46122
C          0.55021        1.88477        2.47362
C          2.79313        0.85922        2.02482
C          5.69521        4.68537        0.60547
H          4.21373        3.83773        3.32005
H          4.63019        2.74362        1.99648
H          2.40512        3.34847        0.89566
H          2.30098        2.12632        3.69430
H          0.68013        4.56813        2.17740
H          2.12823        5.57560        2.10184
H          1.75065        4.68670        3.59430
H          4.24157        5.79219        1.62236
H          0.23800        1.91846        1.41469
H         -0.02753        2.64673        3.01718
H          0.24973        0.90211        2.87240
H          3.87240        0.85491        2.23728
H          2.66640        0.81425        0.92868
H          2.37851       -0.07275        2.44195
H          6.17406        3.72038        0.40397
H          6.09437        5.55558        0.07593
