24
4,5-DIMETHYL-TRANS-2-HEXENE.gamout	Energy:    -314.0229497
C          1.12008        0.93804        0.01720
C          2.57804        0.62054        0.18570
C          3.56541        0.67484       -0.72918
C          4.98813        0.31898       -0.34304
C          5.58961       -0.92859       -1.03588
C          7.06873       -1.08460       -0.66051
C          4.79932       -2.20060       -0.70764
C          3.36750        1.09878       -2.16470
H          0.80604        1.73418        0.71634
H          0.49531        0.05781        0.25375
H          0.85918        1.26522       -0.99946
H          2.86183        0.30439        1.19846
H          5.64223        1.18245       -0.57277
H          5.04187        0.16961        0.74982
H          5.54103       -0.77045       -2.12956
H          7.18577       -1.24048        0.42635
H          7.65300       -0.18977       -0.93230
H          7.52382       -1.94988       -1.17024
H          4.83583       -2.41811        0.37462
H          5.21351       -3.07531       -1.23593
H          3.73844       -2.10492       -0.98749
H          2.34774        1.44839       -2.37477
H          3.58272        0.27075       -2.86301
H          4.06389        1.91502       -2.42843
