27
4-(MMIM)PHOH+1.gamout	Energy:    -610.7110259
N          1.09086       -0.40161       -0.27401
N         -1.03967       -0.54600        0.15942
C          0.06880       -1.27778       -0.11292
C          0.62137        0.88479       -0.09911
C         -0.71077        0.79506        0.16621
C          2.47323       -0.72528       -0.62804
C         -2.37573       -1.06162        0.45848
H          1.26829        1.75398       -0.18277
H         -1.44559        1.57085        0.36439
H          2.49830       -1.68005       -1.16693
H          2.86458        0.06732       -1.27985
H          3.10264       -0.79563        0.27200
H         -2.85111       -0.39909        1.19451
H         -2.99738       -1.09563       -0.44920
H         -2.29226       -2.06918        0.88327
C          0.14823       -2.73340       -0.21198
C          1.12044       -3.45182        0.51639
C          1.20133       -4.83116        0.42393
C          0.30940       -5.53907       -0.40347
C         -0.66277       -4.83230       -1.13397
C         -0.73985       -3.44883       -1.03727
H          1.80688       -2.92494        1.18177
H          1.94507       -5.39330        0.98982
H         -1.48701       -2.91828       -1.63034
H         -1.35446       -5.37058       -1.78738
O          0.43948       -6.86969       -0.44955
H         -0.21362       -7.27076       -1.04083
