17
4-CHLORO-3-NITROBENZOTRIFLUORIDE.gamout	Energy:   -1232.2473235
N          7.23688        2.95573       -0.90022
O          6.91091        4.07879       -0.56814
O          8.30582        2.64255       -1.39918
C          6.27752        1.85593       -0.65155
C          6.82944        0.61380       -0.33063
C          4.88328        2.02907       -0.71637
C          5.99822       -0.46530       -0.03904
Cl         4.12117        3.51228       -1.18445
C          4.05936        0.92896       -0.43669
C          6.58995       -1.82009        0.27827
C          4.60741       -0.30283       -0.09050
F          6.67985       -2.58334       -0.82503
F          5.82794       -2.48821        1.16063
F          7.82369       -1.71542        0.79430
H          7.91476        0.51714       -0.30729
H          2.97782        1.05950       -0.49536
H          3.95004       -1.14298        0.14181
