15
4-CHLOROTOLUENE.gamout	Energy:    -730.5940850
Cl        -2.06930       -0.74181       -0.23244
C          2.42309        0.07508       -0.09861
C          1.92547       -1.23575       -0.19884
C          1.49364        1.12402       -0.04123
C          3.91031        0.33471       -0.05515
C          0.55491       -1.49592       -0.24053
C          0.11634        0.88486       -0.08154
C         -0.34688       -0.42827       -0.18132
H          2.62503       -2.07620       -0.24569
H          1.84954        2.15561        0.03724
H          4.38047       -0.16749        0.80721
H          4.12889        1.41008        0.02367
H          4.41105       -0.04359       -0.96239
H          0.18159       -2.51880       -0.31873
H         -0.59557        1.71112       -0.03591
