32
4-CUMYLPHENOL.gamout	Energy:    -655.5663831
O          4.59479       -1.44261        0.04281
C         -0.43387        1.33233        0.03995
C          0.91163        0.57640        0.00111
C         -1.59893        0.31752        0.02994
C         -0.44144        2.22353        1.30387
C         -0.61945        2.26120       -1.18301
C          1.17450       -0.41887        0.95881
C          1.92726        0.85066       -0.92915
C         -1.62912       -0.69014       -0.95353
C         -2.67228        0.37569        0.93202
C          2.38955       -1.10276        0.99557
C          3.14870        0.17233       -0.90855
C         -2.69024       -1.59191       -1.03992
C         -3.73840       -0.53040        0.85188
C          3.39114       -0.81013        0.05827
C         -3.75593       -1.51560       -0.13550
H          0.41360        2.91615        1.27085
H         -1.35915        2.82943        1.36859
H         -0.35457        1.63142        2.22741
H         -1.60500        2.74907       -1.13167
H          0.14513        3.05425       -1.20682
H         -0.57177        1.70804       -2.13302
H          0.40636       -0.67752        1.69256
H          1.77733        1.61136       -1.69661
H         -0.79931       -0.77321       -1.66065
H         -2.69322        1.13266        1.71757
H          2.56135       -1.87233        1.75595
H          3.93042        0.39119       -1.63944
H         -2.68615       -2.35989       -1.81878
H         -4.55831       -0.45947        1.57246
H         -4.58891       -2.22087       -0.20098
H          4.62424       -2.09582        0.75439
