31
4-DECANONE.gamout	Energy:    -467.6917945
C          0.86556        0.13717        0.30178
C          2.39084        0.07729        0.19771
C          2.89180       -0.61691       -1.07329
C          4.41816       -0.68261       -1.18572
C          4.91156       -1.37892       -2.45734
C          6.43379       -1.43957       -2.56329
C          6.95074       -2.12876       -3.82113
O          6.19788       -2.58684       -4.65378
C          8.46511       -2.21267       -3.97755
C          8.92929       -2.90811       -5.25616
C         10.45188       -2.97326       -5.38494
H          0.54104        0.64054        1.22687
H          0.42553       -0.87449        0.29995
H          0.42738        0.68683       -0.54865
H          2.80073       -0.44587        1.08154
H          2.80516        1.10171        0.23875
H          2.48344       -0.09507       -1.95925
H          2.47958       -1.64266       -1.11574
H          4.82595       -1.20390       -0.29869
H          4.83053        0.34347       -1.14300
H          4.51111       -0.86600       -3.34860
H          4.50746       -2.40449       -2.50767
H          6.87257       -1.96014       -1.69032
H          6.87372       -0.42441       -2.53002
H          8.86927       -2.71981       -3.08013
H          8.86739       -1.18287       -3.91839
H          8.49499       -2.38307       -6.12338
H          8.49880       -3.92296       -5.28678
H         10.89940       -1.96463       -5.39290
H         10.75342       -3.47777       -6.31675
H         10.90593       -3.52694       -4.54519
