24
4-ETHYL-M-XYLENE.gamout	Energy:    -388.9627744
C          6.67959        2.33954        2.84634
C          6.25378        2.49783        1.37660
C          4.75552        2.39446        1.16717
C          3.90116        3.51755        1.26714
C          4.18122        1.14437        0.89238
C          4.44553        4.90244        1.53590
C          2.52002        3.33808        1.09459
C          2.80474        0.98553        0.72616
C          1.94432        2.08715        0.82972
C          0.44958        1.92935        0.68285
H          6.22403        3.11179        3.48718
H          7.77432        2.41639        2.95373
H          6.36790        1.35984        3.24321
H          6.75159        1.71618        0.77811
H          6.62894        3.46071        0.99294
H          4.83446        0.27057        0.79981
H          5.14063        5.22850        0.74278
H          3.63429        5.64353        1.58874
H          5.00338        4.95205        2.48560
H          1.86745        4.21452        1.16733
H          2.39669       -0.00622        0.50806
H          0.19568        1.13787       -0.03997
H         -0.02711        2.86310        0.34624
H         -0.01901        1.65223        1.64436
