24
4-ETHYL-1-HEXENE.gamout	Energy:    -314.0098904
C          1.73024        0.55054        0.74497
C          1.12746        1.94317        0.94322
C          1.80996        2.80952        2.02335
C          3.24322        3.23589        1.58637
C          0.90593        4.00877        2.37389
C          4.26175        3.28608        2.69472
C          5.38795        2.56684        2.73569
C          1.39544        4.93238        3.49160
H          2.78999        0.59031        0.44473
H          1.19087       -0.00587       -0.03873
H          1.67512       -0.04475        1.67240
H          1.13595        2.49519       -0.01584
H          0.06200        1.82785        1.21053
H          1.90549        2.18193        2.93072
H          3.61653        2.54717        0.81137
H          3.17780        4.22813        1.09926
H         -0.08773        3.61575        2.65456
H          0.74049        4.60478        1.45604
H          4.04478        3.96174        3.53066
H          6.08848        2.64638        3.57219
H          5.65453        1.87166        1.93138
H          1.59007        4.37277        4.42230
H          0.64029        5.70173        3.72176
H          2.32254        5.46319        3.22186
