29
4-ETHYLHEPTANE.gamout	Energy:    -354.4948591
C          4.17557        1.39385        3.22709
C          4.21680        2.43163        4.36818
C          3.33438        2.00400        5.56165
C          5.65185        2.78868        4.82369
C          4.91392        1.78953        1.94224
C          1.82135        2.03436        5.30928
C          6.48554        1.63554        5.39262
C          4.72284        0.78187        0.80671
C          0.99749        1.67820        6.54824
H          4.57322        0.42861        3.59251
H          3.12039        1.19895        2.96706
H          3.78182        3.36929        3.96961
H          3.62344        0.98856        5.89107
H          3.55332        2.67157        6.41595
H          5.57713        3.58495        5.58594
H          6.19694        3.24096        3.97748
H          5.99361        1.90197        2.14356
H          4.56050        2.78520        1.61558
H          1.53494        3.04262        4.95652
H          1.55879        1.34041        4.49178
H          6.00452        1.17238        6.26941
H          7.47698        1.99276        5.71593
H          6.65386        0.83983        4.64863
H          3.65761        0.67141        0.54038
H          5.09433       -0.21759        1.09096
H          5.26213        1.08879       -0.10438
H         -0.08447        1.71378        6.34054
H          1.19949        2.37564        7.37925
H          1.23181        0.66219        6.90978
