29
4-ETHYL-2-METHYLHEXANE.gamout	Energy:    -354.4943438
C          2.37461        3.61084        2.55497
C          2.26943        3.32425        4.06865
C          1.03319        4.04816        4.64488
C          2.31481        1.81661        4.41143
C          3.59742        3.04835        1.80259
C          0.88530        3.98878        6.16692
C          1.18137        0.95824        3.84089
C          4.92750        3.57168        2.36181
C          3.48314        3.35855        0.30354
H          2.36216        4.70818        2.41156
H          1.45880        3.24123        2.05840
H          3.15188        3.77849        4.55785
H          0.11754        3.64958        4.17098
H          1.08765        5.10710        4.33500
H          2.32827        1.70387        5.50933
H          3.28055        1.40681        4.06920
H          3.59558        1.94749        1.90944
H          0.70595        2.96402        6.53039
H          0.03709        4.60588        6.50557
H          1.79038        4.36497        6.67444
H          1.15028        0.98640        2.73940
H          0.19226        1.28068        4.20550
H          1.30742       -0.09679        4.13462
H          5.08234        3.28709        3.41461
H          4.97094        4.67395        2.30595
H          5.78190        3.17752        1.78694
H          3.48644        4.44797        0.12263
H          4.32419        2.92620       -0.26357
H          2.54959        2.95507       -0.12253
