24
4-ETHYL-O-XYLENE.gamout	Energy:    -388.9644198
C          5.94672        3.80155        1.05349
C          6.53973        4.98148        1.84005
C          4.61476        3.32719        1.59619
C          4.55046        2.36232        2.61347
C          3.40673        3.86011        1.12805
C          3.33788        1.92593        3.16417
C          2.18806        3.43804        1.66501
C          3.32759        0.88012        4.25282
C          2.12623        2.47491        2.68108
C          0.79658        2.03139        3.24090
H          6.66528        2.96387        1.06268
H          5.82528        4.09579       -0.00304
H          7.50749        5.29705        1.41611
H          6.70369        4.71241        2.89634
H          5.86206        5.85065        1.82291
H          5.48295        1.92784        2.99011
H          3.41582        4.61060        0.33145
H          1.25642        3.86507        1.28092
H          2.76644       -0.02013        3.94676
H          2.84404        1.25189        5.17270
H          4.34793        0.56389        4.51571
H          0.72394        2.22369        4.32551
H          0.63547        0.94767        3.10420
H         -0.03783        2.55633        2.75243
