22
4-ETHYLCYCLOHEXENE.gamout	Energy:    -312.8229964
C          1.06708        1.12752        1.69871
C          0.93394        1.78503        3.04920
C          2.21606        1.10051        1.00888
C          2.13024        2.69397        3.36762
C          3.47848        2.03248        3.01488
C          3.50053        1.72334        1.50291
C          3.79087        0.77434        3.85201
C          3.85829        1.00329        5.36407
H          0.17596        0.64303        1.28266
H          0.81932        1.00340        3.82604
H         -0.00487        2.36601        3.09165
H          2.24238        0.61307        0.02716
H          2.10633        3.00159        4.42572
H          2.03764        3.62398        2.77891
H          4.27789        2.76708        3.22423
H          4.35206        1.06160        1.26165
H          3.68873        2.65401        0.93295
H          4.76120        0.37255        3.50916
H          3.04983       -0.01361        3.62943
H          4.58120        1.79769        5.61867
H          4.17645        0.08724        5.88801
H          2.88412        1.29726        5.78684
