19
4-HYDROXY-PHENYLACETIC_ACID.gamout	Energy:    -534.6709893
O         -1.34680       -1.45451        3.28205
O         -0.78250       -2.01430       -3.35055
O          0.71285       -0.34579       -3.23994
C         -1.47050       -0.40952       -0.76615
C         -1.47269       -0.02975       -2.23735
C         -2.44372       -1.26279       -0.23164
C         -0.46333        0.06650        0.09175
C         -2.42520       -1.62461        1.11829
C         -0.43229       -0.28750        1.43844
C         -1.41716       -1.13928        1.96262
C         -0.38806       -0.77345       -2.99667
H         -2.44929       -0.26291       -2.68629
H         -1.26982        1.04390       -2.36053
H         -3.23506       -1.65302       -0.87780
H          0.31080        0.72887       -0.30606
H         -3.19910       -2.28785        1.51893
H          0.34861        0.08515        2.10491
H         -2.07103       -2.05228        3.51032
H         -0.01988       -2.43798       -3.78185
