20
4-HYDROXYPHENYLACETAMIDE.gamout	Energy:    -514.8198914
O         -3.17299       -0.10895        1.25518
O          3.09231        0.86456       -3.15789
N          2.49475        0.57488       -0.98941
C         -0.21266       -0.02650       -1.71182
C          0.86834        0.03932       -2.76444
C         -0.41650       -1.18421       -0.94415
C         -1.03547        1.08343       -1.44377
C         -1.39515       -1.23722        0.05275
C         -2.01731        1.04537       -0.45569
C         -2.20385       -0.11976        0.30419
C          2.25845        0.54660       -2.33109
H          1.04400       -0.95841       -3.20192
H          0.57331        0.68802       -3.60308
H          0.20059       -2.06889       -1.12916
H         -0.90698        1.99982       -2.02778
H         -1.53677       -2.15437        0.63438
H         -2.65566        1.90939       -0.25824
H          3.39507        0.91523       -0.67260
H          1.76467        0.39151       -0.31335
H         -3.19276       -0.96269        1.70772
