17
4-HYDROXYBENZYL_ALCOHOL.gamout	Energy:    -421.4466092
O         -3.19279       -0.68413        0.47672
O          3.18986       -0.07947        0.12114
C         -0.97706        0.15210       -0.17248
C         -0.36060       -1.07311        0.11613
C         -0.15828        1.27923       -0.34858
C         -2.48419        0.23978       -0.32295
C          1.02865       -1.17481        0.22186
C          1.22977        1.19129       -0.25237
C          1.83405       -0.04240        0.03290
H         -0.98595       -1.95665        0.26649
H         -0.61596        2.25042       -0.56284
H         -2.81031        1.28410       -0.13690
H         -2.77397        0.00925       -1.36375
H          1.49261       -2.14051        0.45041
H          1.86709        2.06814       -0.38684
H         -2.93469       -0.53434        1.39703
H          3.47539       -0.98168        0.31721
