14
4-HYDROXYBENZONITRILE.gamout	Energy:    -399.1936568
O          3.20788        0.03378       -0.00037
N         -3.55130        0.01023        0.00006
C          1.85783       -0.01838        0.00015
C         -0.95466       -0.00330       -0.00004
C          1.14416       -1.22833        0.00017
C          1.15881        1.20110        0.00010
C         -0.24825       -1.22070        0.00001
C         -0.23050        1.20742        0.00004
C         -2.38917        0.00455       -0.00021
H          1.68455       -2.18015        0.00010
H          1.72821        2.13260        0.00002
H         -0.79790       -2.16424       -0.00005
H         -0.77013        2.15678       -0.00003
H          3.57531       -0.86070       -0.00038
