16
4-METHYL-2-PENTYNE.gamout	Energy:    -234.2696574
C          1.98259        4.24344        1.06121
C          2.10911        2.99641        1.95808
C          0.91354        2.04328        1.76705
C          3.38712        2.30210        1.73676
C          4.43843        1.72773        1.54101
C          5.70686        1.03957        1.31448
H          1.04401        4.77875        1.27816
H          2.82162        4.93778        1.22105
H          1.97759        3.95883       -0.00351
H          2.09811        3.34002        3.01005
H          0.87007        1.67632        0.72875
H          0.98951        1.16831        2.43092
H         -0.03388        2.56158        1.98763
H          6.24717        1.46247        0.45069
H          6.37046        1.12048        2.19198
H          5.55217       -0.03417        1.11436
