24
4-METHYL-3-ETHYL-1-PENTENE.gamout	Energy:    -314.0091710
C          2.31107        5.49240        1.38830
C          2.12922        3.98001        1.59420
C          3.19877        3.37743        2.54343
C          0.70684        3.70633        2.11162
C          3.17573        1.86516        2.66131
C          4.65923        3.82788        2.24879
C          2.68472        0.96828        1.79976
C          5.20204        3.46166        0.86550
H          2.30163        6.02947        2.35352
H          1.48763        5.89962        0.77921
H          3.25134        5.74473        0.87591
H          2.23354        3.49746        0.60518
H          2.97224        3.76873        3.55521
H          0.50803        2.63390        2.24817
H         -0.04850        4.10442        1.41419
H          0.54948        4.20187        3.08566
H          3.68228        1.48310        3.55853
H          4.73397        4.91735        2.40024
H          5.31088        3.37950        3.01985
H          2.17016        1.25445        0.87738
H          2.77683       -0.10530        1.98987
H          6.26209        3.74995        0.77558
H          4.65510        3.97213        0.05591
H          5.13262        2.37810        0.67870
