18
4-METHYL-TRANS-2-PENTENE.gamout	Energy:    -235.5084939
C          2.10156        1.79875        3.17835
C          2.37692        1.30097        1.77656
C          0.91826        1.89581        3.79752
C          3.11412        2.38134        0.96283
C          1.13860        0.79626        1.02983
C          0.71539        2.41058        5.19355
H          2.99656        2.12445        3.72864
H          3.07772        0.44740        1.87843
H          0.00949        1.57981        3.27065
H          2.46605        3.25929        0.80027
H          3.41954        1.99758       -0.02482
H          4.02256        2.73105        1.48078
H          1.41683        0.40851        0.03668
H          0.63391       -0.01508        1.57791
H          0.40630        1.60693        0.87669
H          0.04184        3.28643        5.20533
H          0.24165        1.64809        5.83786
H          1.66682        2.70735        5.66280
