32
4-METHYL-3-ETHYLHEPTANE.gamout	Energy:    -393.7427321
C          0.22129       29.67229        0.74308
C          1.42290       30.56604        0.42885
C          1.02195       32.00553        0.08649
C          2.15831       33.03200       -0.11380
C          3.13316       32.75985       -1.30532
C          1.55973       34.44634       -0.20416
C          4.22272       31.69488       -0.98499
C          2.39151       32.46727       -2.62647
C          5.65452       32.14942       -1.28913
C          3.26412       32.49991       -3.88383
H          0.53401       28.64362        0.98593
H         -0.35376       30.05634        1.60321
H         -0.47345       29.61304       -0.11259
H          1.99426       30.12012       -0.40238
H          2.10760       30.57425        1.29668
H          0.38157       32.38330        0.90486
H          0.37248       31.99865       -0.80802
H          2.77915       33.01144        0.80217
H          3.66982       33.71649       -1.45267
H          2.34843       35.21359       -0.27160
H          0.94709       34.67556        0.68337
H          0.90711       34.56214       -1.08587
H          4.17042       31.42289        0.08194
H          4.01378       30.76122       -1.53678
H          1.90071       31.48002       -2.55799
H          1.57671       33.20157       -2.75090
H          6.38698       31.36070       -1.04891
H          5.78727       32.41330       -2.35076
H          5.92246       33.04010       -0.69545
H          2.65716       32.33140       -4.78863
H          3.76762       33.47494       -4.00117
H          4.04737       31.72463       -3.87075
