21
4-METHYL-TRANS-2-HEXENE.gamout	Energy:    -274.7642226
C          5.70263        0.81697        1.29052
C          4.30700        1.28268        0.86772
C          3.43365        1.86300        2.00600
C          3.09825        0.81348        3.08226
C          2.16754        2.46332        1.44442
C          1.80148        3.74774        1.53705
C          0.54159        4.34201        0.97779
H          6.28077        1.64238        1.73986
H          5.66569       -0.00170        2.02705
H          6.27320        0.44701        0.42308
H          4.40797        2.05692        0.08771
H          3.76251        0.44487        0.39282
H          4.00921        2.67550        2.48806
H          4.00686        0.36880        3.51815
H          2.52150        1.26592        3.90416
H          2.49291       -0.00641        2.65786
H          1.50373        1.76121        0.91714
H          2.46843        4.44249        2.06759
H          0.76379        5.14556        0.25252
H         -0.07546        3.58619        0.46640
H         -0.07303        4.80188        1.77248
