24
4-METHYL-1-HEPTENE.gamout	Energy:    -314.0142724
C          0.82878        1.19479        0.84492
C          2.08055        1.10459        1.72061
C          3.35567        1.56369        1.00372
C          4.65293        1.46296        1.83173
C          5.88820        1.61937        0.91026
C          4.66987        2.47078        2.99007
C          7.21397        1.32940        1.55891
C          8.06111        0.36850        1.17531
H          0.93546        0.59227       -0.07338
H          0.63127        2.23466        0.53323
H         -0.06519        0.83229        1.37785
H          1.92364        1.70322        2.63486
H          2.21451        0.06195        2.06358
H          3.47412        0.96277        0.08321
H          3.22805        2.60962        0.66294
H          4.69358        0.44489        2.26452
H          5.89286        2.65530        0.51633
H          5.76762        0.95727        0.03537
H          3.81695        2.32194        3.67017
H          4.61532        3.50610        2.60943
H          5.58343        2.38593        3.59904
H          7.49424        1.95916        2.41282
H          7.83618       -0.28838        0.32736
H          9.01301        0.20406        1.68901
