32
4-METHYL-4-ETHYLHEPTANE.gamout	Energy:    -393.7459662
C         -0.13488       39.76093        0.26587
C          1.38875       39.80672        0.12325
C          1.94470       41.22946        0.27879
C          3.47335       41.44652        0.09236
C          3.80003       42.94571        0.34613
C          4.23524       40.58513        1.14068
C          3.89718       41.04135       -1.33527
C          3.12596       43.99444       -0.54974
C          3.58568       45.41871       -0.22564
C          5.76467       40.68229        1.16113
H         -0.52299       38.73475        0.15877
H         -0.45766       40.13569        1.25250
H         -0.62971       40.38459       -0.49830
H          1.66895       39.39659       -0.86313
H          1.83727       39.13391        0.87397
H          1.66372       41.60592        1.28112
H          1.41221       41.87296       -0.44308
H          4.89148       43.08516        0.25445
H          3.55481       43.17594        1.40039
H          3.96591       39.52784        0.97931
H          3.84961       40.84607        2.14363
H          3.24482       41.49833       -2.09673
H          4.92963       41.35566       -1.55907
H          3.85040       39.94947       -1.47723
H          2.02907       43.94239       -0.44424
H          3.34342       43.77827       -1.61044
H          3.09082       46.16170       -0.87220
H          4.67476       45.53211       -0.36274
H          3.35774       45.68425        0.82079
H          6.17963       39.98986        1.91178
H          6.12226       41.69098        1.42127
H          6.21029       40.41107        0.19020
