29
4-METHYLOCTANE.gamout	Energy:    -354.4977636
C          4.50642        0.28404        0.05473
C          3.16551       -0.13500       -0.55123
C          1.96307        0.18186        0.34616
C          0.62338       -0.27494       -0.24166
C         -0.63401        0.11116        0.56444
C         -1.90434       -0.27050       -0.22259
C         -3.23212        0.21944        0.36765
C         -4.44018       -0.11379       -0.51142
H          4.68794       -0.22935        1.01429
H          5.34815        0.04389       -0.61506
H          4.53725        1.36935        0.25144
H          3.03021        0.36029       -1.53037
H          3.18144       -1.21981       -0.76477
H          2.12402       -0.29115        1.33109
H          1.93011        1.27172        0.53630
H          0.52443        0.14213       -1.26058
H          0.63991       -1.37478       -0.37023
C         -0.62622       -0.49339        1.97618
H         -0.63087        1.21446        0.67229
H         -1.81101        0.12494       -1.25082
H         -1.93875       -1.37241       -0.32953
H         -3.38466       -0.22010        1.36833
H         -3.18011        1.31329        0.52244
H         -4.34887        0.34373       -1.51120
H         -4.54130       -1.20288       -0.65683
H         -5.37936        0.24971       -0.06336
H          0.26155       -0.18447        2.54906
H         -0.62789       -1.59722        1.93152
H         -1.50691       -0.18244        2.55894
