27
4-METHYL-3-HEPTANOL.gamout	Energy:    -390.3685984
C          1.88043        1.67105        4.21585
C          2.10279        2.41923        2.87558
C          3.52932        2.22686        2.32493
C          1.02217        2.01375        1.86074
C          2.78251        2.13055        5.36290
O          2.07272        0.26640        4.07843
C          3.85668        3.00370        1.04382
C          2.36671        1.55833        6.71933
C          5.31498        2.84506        0.60695
H          0.83047        1.87319        4.52141
H          1.96061        3.49470        3.09752
H          3.69852        1.14736        2.16221
H          4.25351        2.52877        3.10076
H          1.12921        0.95543        1.56231
H          1.07532        2.61259        0.93936
H          0.01039        2.14835        2.27940
H          3.81787        1.82285        5.13979
H          2.77829        3.23424        5.39554
H          1.37338       -0.08702        3.51483
H          3.63317        4.07594        1.19937
H          3.19987        2.67540        0.21962
H          3.05674        1.87604        7.51749
H          2.36161        0.45822        6.68716
H          1.35324        1.89132        7.00216
H          6.00989        3.20289        1.38569
H          5.52631        3.41172       -0.31448
H          5.55948        1.78712        0.41121
