24
4-METHYL-TRANS-2-HEPTENE.gamout	Energy:    -314.0214535
C          0.45527        1.87184        1.68250
C          1.97079        1.88247        1.47276
C          2.76268        1.55526        2.74184
C          4.29798        1.58079        2.57492
C          4.80746        2.97025        2.27655
C          4.99170        1.00565        3.82357
C          5.53321        3.32638        1.20863
C          6.05646        4.70483        0.92714
H         -0.08400        2.10776        0.75056
H          0.10287        0.88547        2.02995
H          0.15037        2.61412        2.43990
H          2.23843        1.15625        0.68284
H          2.28465        2.86911        1.08914
H          2.48074        2.26444        3.54437
H          2.46488        0.55583        3.10983
H          4.55564        0.93723        1.71279
H          4.55970        3.73810        3.02550
H          6.08649        1.00050        3.70446
H          4.66051       -0.02753        4.02126
H          4.75538        1.60730        4.71841
H          5.77594        2.55455        0.46449
H          7.15838        4.70713        0.84577
H          5.67478        5.08900       -0.03585
H          5.77159        5.41890        1.71591
