26
4-METHYLHEPTANE.gamout	Energy:    -315.2416126
C          5.89819        2.15065        0.91156
C          4.60152        2.01752        1.73495
C          3.37789        2.40180        0.87789
C          4.45275        0.61960        2.35403
C          7.20828        2.00937        1.69631
C          2.06553        2.59786        1.64713
C          8.45151        2.23946        0.83338
C          0.90216        3.04037        0.75703
H          5.89636        3.13770        0.41324
H          5.88056        1.40576        0.09210
H          4.66087        2.75006        2.56467
H          3.23351        1.63535        0.09178
H          3.60763        3.33992        0.33971
H          3.53803        0.53538        2.96089
H          4.40302       -0.15334        1.56658
H          5.29951        0.37017        3.01215
H          7.20283        2.72645        2.53799
H          7.26897        1.00708        2.15455
H          2.22685        3.35032        2.44139
H          1.78687        1.66563        2.16848
H          8.49712        1.51653        0.00133
H          9.37839        2.13186        1.41990
H          8.45240        3.25016        0.39077
H          0.67767        2.28647       -0.01677
H         -0.01790        3.19883        1.34298
H          1.13190        3.98594        0.23676
