32
4-METHYLNONANE.gamout	Energy:    -393.7524357
C          2.59471        1.43035        1.45504
C          1.24819        1.81594        2.10836
C          3.86467        1.71005        2.27167
C          1.00409        3.33622        2.19614
C          1.06472        1.15494        3.48095
C          5.15827        1.42265        1.49801
C          0.86895        4.06959        0.85689
C          6.43566        1.59957        2.32666
C          0.56169        5.56129        1.00888
C          7.72048        1.36520        1.52975
H          2.56483        0.35192        1.21392
H          2.68000        1.94297        0.48106
H          0.46153        1.40548        1.44688
H          3.87851        2.76413        2.60484
H          3.85822        1.10357        3.19463
H          1.80488        3.80803        2.79648
H          0.07482        3.49786        2.77312
H          1.74796        1.57827        4.23609
H          1.25366        0.06983        3.43282
H          0.03839        1.29870        3.85561
H          5.20714        2.08483        0.61266
H          5.12527        0.39183        1.09643
H          0.06838        3.59141        0.26229
H          1.79216        3.95352        0.26174
H          6.40819        0.91007        3.19049
H          6.45159        2.61803        2.75734
H         -0.37958        5.72654        1.56126
H          0.46022        6.05312        0.02845
H          1.36122        6.08541        1.56043
H          8.61540        1.48937        2.15990
H          7.80589        2.07412        0.68845
H          7.75180        0.34709        1.10505
