20
4-METHYLQUINOLINE.gamout	Energy:    -440.6516049
C         -3.90103       -2.13698        1.70865
C         -5.34964       -1.85404        2.01104
C         -3.46869       -3.43246        1.26936
C         -2.93348       -1.15904        1.84344
C         -2.07016       -3.62216        1.00251
C         -4.35190       -4.53386        1.08571
C         -1.57626       -1.45383        1.55242
N         -1.14856       -2.62777        1.14925
C         -1.61462       -4.89774        0.56555
C         -3.87830       -5.75915        0.66044
C         -2.49764       -5.94352        0.39790
H         -5.48924       -0.81138        2.33108
H         -5.98738       -2.02591        1.12759
H         -5.72842       -2.50910        2.81363
H         -3.20408       -0.15257        2.17461
H         -5.41824       -4.40744        1.28423
H         -0.82082       -0.66447        1.66530
H         -0.54531       -5.00651        0.37188
H         -4.57116       -6.59401        0.52469
H         -2.13657       -6.91930        0.06158
