24
4-METHYL-3-ETHYL-TRANS-2-PENTENE.gamout	Energy:    -314.0186415
C          0.55215       29.56265       -0.17618
C          1.57447       30.56358        0.39036
C          1.16507       32.02134        0.18935
C          1.87619       30.25538        1.86979
C          1.99791       32.86262       -0.45255
C         -0.18019       32.46666        0.74535
C          1.80756       34.32892       -0.71742
C         -1.29705       32.57828       -0.30631
H          0.36530       29.73891       -1.24765
H          0.91911       28.52879       -0.06345
H         -0.41543       29.62255        0.34990
H          2.51632       30.41954       -0.16788
H          2.65260       30.92890        2.26602
H          2.23178       29.21803        1.98840
H          0.97925       30.36669        2.50241
H          2.93905       32.44355       -0.83371
H         -0.50352       31.76466        1.53176
H         -0.06872       33.44212        1.24881
H          0.90986       34.74417       -0.23675
H          2.67808       34.90821       -0.36093
H          1.72682       34.53196       -1.80113
H         -2.24525       32.89671        0.15849
H         -1.04194       33.31246       -1.08701
H         -1.47812       31.61586       -0.81000
