24
4-METHYL-TRANS-3-HEPTENE.gamout	Energy:    -314.0220834
C          1.31909        1.09692        0.14451
C          2.01256       -0.13545       -0.45694
C          2.53745       -1.08260        0.58818
C          3.80570       -1.47033        0.82349
C          4.11006       -2.44596        1.94438
C          4.60676       -3.82881        1.48300
C          4.86519       -4.78874        2.64582
C          5.00190       -0.99753        0.03210
H          0.89183        1.74040       -0.64230
H          2.02661        1.70372        0.73313
H          0.49590        0.80483        0.81852
H          2.81471        0.19040       -1.13784
H          1.28074       -0.67680       -1.08691
H          1.76349       -1.49497        1.25121
H          3.20566       -2.58569        2.56156
H          4.87675       -2.00382        2.61089
H          5.53425       -3.71800        0.89408
H          3.85708       -4.26423        0.79838
H          5.63226       -4.39006        3.33156
H          5.21643       -5.77068        2.28907
H          3.95077       -4.95902        3.23962
H          5.77558       -0.59063        0.70731
H          4.75381       -0.21930       -0.70247
H          5.47656       -1.82971       -0.51714
