24
4-METHYL-2-ETHYL-1-PENTENE.gamout	Energy:    -314.0190775
C          0.40031       19.33882        1.36715
C          0.84183       19.44792       -0.10044
C          0.91324       20.86780       -0.63141
C          1.93069       21.80248       -0.00819
C          0.09280       21.28018       -1.60970
C          3.41450       21.40233       -0.19675
C          3.81287       21.35188       -1.67681
C          4.32652       22.35604        0.58541
H          0.33849       18.28331        1.67830
H          1.10315       19.84052        2.05189
H         -0.59250       19.79394        1.51593
H          0.14712       18.86878       -0.73078
H          1.83076       18.96613       -0.21104
H          1.78538       22.81761       -0.41715
H          1.73412       21.87743        1.07738
H          0.12847       22.30444       -1.99399
H         -0.64594       20.60840       -2.05840
H          3.55112       20.39037        0.22865
H          4.86016       21.02821       -1.79502
H          3.17694       20.66036       -2.25137
H          3.71731       22.34965       -2.14000
H          5.38550       22.06299        0.49456
H          4.07424       22.37171        1.65877
H          4.23440       23.38919        0.20706
