19
4-METHYL-1-HEXYNE.gamout	Energy:    -273.5142963
C         -0.11287       19.82221        0.12734
C          0.90163       19.16636        0.02392
C          2.12009       18.36659       -0.10973
C          2.38098       17.82238       -1.53790
C          2.54078       18.96739       -2.54486
C          3.60558       16.88770       -1.56614
C          3.46124       15.58439       -0.77604
H         -1.00959       20.40436        0.22466
H          2.98855       18.97516        0.20631
H          2.05982       17.52804        0.60480
H          1.49343       17.23026       -1.82919
H          2.66053       18.57964       -3.56949
H          1.66637       19.63564       -2.53402
H          3.43249       19.57594       -2.31295
H          3.81735       16.64048       -2.62129
H          4.48990       17.44671       -1.20637
H          4.34484       14.93996       -0.91108
H          3.35273       15.75725        0.30692
H          2.57967       15.01105       -1.10957
