18
4-METHYL-CIS-2-PENTENE.gamout	Energy:    -235.5072111
C          3.10100        1.97702        1.16601
C          3.45686        2.80410        2.37882
C          2.01588        1.21426        0.96300
C          4.77453        2.31120        3.00496
C          3.55311        4.29503        2.00702
C          0.85986        0.97960        1.89340
H          3.84276        2.02209        0.35579
H          2.66294        2.69587        3.13724
H          1.94880        0.68921        0.00114
H          5.60721        2.38968        2.28441
H          5.04118        2.91332        3.88955
H          4.70201        1.25724        3.31719
H          3.81405        4.90806        2.88598
H          2.60047        4.66961        1.59963
H          4.33156        4.46121        1.24216
H          0.95775        1.51842        2.84683
H          0.75093       -0.09546        2.12332
H         -0.09100        1.29249        1.42589
