19
4-METHYL-2-HEXYNE.gamout	Energy:    -273.5247695
C          4.53966        2.73768        1.22563
C          3.27608        1.99459        1.10313
C          2.11181        2.78155        1.75646
C          3.42576        0.56479        1.66081
C          5.57860        3.35611        1.33215
C          0.72462        2.18657        1.50859
C          6.83151        4.09702        1.45739
H          3.04827        1.91069        0.02216
H          2.14123        3.81528        1.37305
H          2.30496        2.85491        2.84179
H          2.51551       -0.03006        1.48810
H          4.26631        0.04391        1.17747
H          3.62246        0.58857        2.74534
H         -0.05857        2.82488        1.94842
H          0.61484        1.18401        1.95155
H          0.51138        2.09876        0.42923
H          7.50237        3.63132        2.19914
H          6.65343        5.13715        1.77921
H          7.37447        4.13565        0.49778
