19
4-METHYLTHIACYCLOHEXANE.gamout	Energy:    -633.5483168
C          0.62174        0.95118        0.86330
C          1.05622       -0.26668        1.69301
C          2.33044       -0.94155        1.13788
C         -0.08667       -1.28863        1.88571
C          2.13713       -1.66918       -0.19526
C         -0.48323       -2.04737        0.61630
S          0.90004       -3.01961       -0.09522
H          1.43452        1.69333        0.79396
H          0.33502        0.68474       -0.16683
H         -0.24626        1.45158        1.32391
H          1.31499        0.10719        2.69998
H          3.12380       -0.18118        1.01818
H          2.69855       -1.67157        1.87951
H         -0.97748       -0.76715        2.28195
H          0.21509       -2.02599        2.64975
H          3.07225       -2.15627       -0.51324
H          1.85108       -0.97170       -1.00089
H         -1.27295       -2.78425        0.83211
H         -0.88313       -1.36717       -0.15435
