18
4-METHYL-1-PENTENE.gamout	Energy:    -235.5044575
C          3.09508        1.45984        1.23921
C          4.37158        1.88140        2.00444
C          1.82056        2.04813        1.77807
C          4.61948        3.39260        1.92462
C          5.58879        1.09346        1.50484
C          0.94008        2.77657        1.08440
H          3.01993        0.35659        1.28940
H          3.20602        1.71573        0.16974
H          4.21571        1.61893        3.06909
H          1.61133        1.83871        2.83680
H          5.50206        3.68217        2.51844
H          4.80318        3.70521        0.88146
H          3.75679        3.96782        2.29568
H          6.49651        1.35725        2.07208
H          5.43625        0.00574        1.60189
H          5.78905        1.30841        0.44047
H          0.02457        3.16051        1.54429
H          1.10071        3.01362        0.02675
