20
4-METHYL_CYCLOHEXANONE.gamout	Energy:    -348.7224091
C          0.90813       -0.05106        0.12922
C          2.43876       -0.08474        0.00818
C          2.98246        0.95606       -0.99266
C          2.98104       -1.48399       -0.34914
C          2.69772        0.59245       -2.46377
C          3.14329       -0.82494       -2.80195
O          3.80448       -1.08309       -3.78340
C          2.69755       -1.89128       -1.80915
H          0.55805        0.95051        0.42844
H          0.55577       -0.76747        0.88953
H          0.39951       -0.30341       -0.81614
H          2.84491        0.17816        1.00140
H          4.07484        1.04384       -0.85594
H          2.56383        1.95232       -0.76981
H          2.56088       -2.24091        0.33484
H          4.07319       -1.49403       -0.18532
H          3.19362        1.28304       -3.16200
H          1.61051        0.65211       -2.65756
H          1.61046       -2.03817       -1.94912
H          3.19326       -2.83632       -2.07665
