24
4-METHYL-3-ETHYL-CIS-2-PENTENE.gamout	Energy:    -314.0171166
C          0.85732       29.77824       -0.43704
C          1.09162       30.81379        0.67521
C          0.95357       32.26396        0.22202
C          1.99882       32.85406       -0.39016
C         -0.36376       32.97700        0.51205
C          2.12238       34.24165       -0.95151
C         -1.59685       32.21948       -0.01273
C         -0.51275       33.28108        2.01647
H          0.98285       28.75131       -0.05441
H         -0.15480       29.85486       -0.86380
H          1.57401       29.92152       -1.26183
H          2.10498       30.66209        1.08447
H          0.39854       30.60840        1.50861
H          2.90727       32.24488       -0.50459
H         -0.34296       33.94826       -0.00732
H          1.20341       34.83874       -0.86358
H          2.93051       34.80056       -0.44535
H          2.39691       34.20890       -2.02141
H         -2.51315       32.80466        0.17199
H         -1.52815       32.03554       -1.09678
H         -1.72656       31.24614        0.48860
H         -1.44013       33.84613        2.21052
H          0.33396       33.87853        2.38991
H         -0.56016       32.35680        2.61652
