16
4-METHYL-1,2-PENTADIENE.gamout	Energy:    -234.2669137
C          0.94439        0.54937       -0.28424
C          2.10807       -0.02172       -0.08808
C          3.27275       -0.58923        0.11555
C          4.13286       -0.42689        1.35794
C          4.32945       -1.78275        2.05590
C          5.48216        0.21762        1.00029
H          0.86215        1.53289       -0.76226
H          0.00910        0.06412        0.01958
H          3.67890       -1.24381       -0.67079
H          3.59993        0.24645        2.05127
H          4.83920       -2.49930        1.38866
H          3.36465       -2.22564        2.34910
H          4.94664       -1.67542        2.96368
H          6.04264       -0.40943        0.28518
H          6.11000        0.34163        1.89846
H          5.34423        1.20866        0.54002
