21
4-METHYL-1-HEXENE.gamout	Energy:    -274.7545738
C          2.75785        1.78573        3.24026
C          4.22956        2.06203        2.83065
C          4.42432        3.32380        1.95696
C          4.92552        0.82120        2.25384
C          1.79912        1.34308        2.16801
C          4.01839        3.23469        0.48142
C          0.60143        1.88790        1.92808
H          2.78771        0.99002        4.01087
H          2.35262        2.68097        3.74365
H          4.73939        2.28952        3.78525
H          5.49311        3.60189        2.00787
H          3.87888        4.15908        2.43256
H          5.99428        1.01992        2.06801
H          4.86384       -0.02904        2.95367
H          4.48418        0.49355        1.29901
H          2.10653        0.47756        1.56687
H          4.58138        2.45252       -0.05363
H          2.94660        3.01989        0.35844
H          4.22777        4.18863       -0.03025
H         -0.06272        1.49458        1.15271
H          0.23809        2.74933        2.49993
