21
4-METHYL-2-PENTANOL.gamout	Energy:    -311.8566626
C          2.41832        2.66474        2.73548
C          3.90120        2.72225        3.14886
C          1.53209        1.58980        3.38638
C          4.63103        3.81100        2.34942
C          4.09515        2.93364        4.65757
C          2.00683        0.16492        3.13546
O          0.21067        1.67004        2.86169
H          1.96010        3.65250        2.94480
H          2.35023        2.52330        1.64202
H          4.36275        1.75324        2.88194
H          1.50661        1.75951        4.48316
H          5.70632        3.83346        2.59146
H          4.53251        3.64935        1.26334
H          4.21881        4.81025        2.57524
H          5.16538        3.02127        4.90731
H          3.60124        3.86243        4.99476
H          3.68534        2.10308        5.25395
H          2.08203       -0.03232        2.05308
H          1.28365       -0.54897        3.55876
H          2.98905       -0.02173        3.59559
H         -0.12823        2.55718        3.03897
