22
4-OCTYNE.gamout	Energy:    -312.7820807
C          4.32968        0.99826        1.82658
C          3.11648        0.99001        1.87789
C          1.65158        0.98170        1.93500
C          5.79284        1.02214        1.76028
C          0.97307        2.06553        1.07064
C          6.37261        2.32614        1.17694
C          1.30027        3.49573        1.49807
C          7.89998        2.31992        1.12205
H          1.28640       -0.01265        1.62080
H          1.32955        1.10259        2.98657
H          6.14598        0.16497        1.15684
H          6.20471        0.86284        2.77449
H          1.26661        1.91344        0.01743
H         -0.11778        1.90242        1.11894
H          5.95732        2.47796        0.16589
H          6.01984        3.17615        1.78591
H          2.38437        3.68769        1.45290
H          0.97164        3.69127        2.53343
H          0.80007        4.23054        0.84667
H          8.27773        1.49487        0.49444
H          8.33876        2.19744        2.12693
H          8.29008        3.26108        0.70254
