24
5,5-DIMETHYL-TRANS-2-HEXENE.gamout	Energy:    -314.0206415
C         -0.02575       21.05461       -0.02360
C          1.51349       21.01161       -0.05770
C          2.03027       22.44988       -0.37056
C          2.04097       20.54686        1.31100
C          1.96204       20.02093       -1.14898
C          3.52133       22.61509       -0.48133
C          4.28139       23.35461        0.33766
C          5.76683       23.53670        0.22496
H         -0.44484       20.06201        0.21203
H         -0.43884       21.37035       -0.99625
H         -0.39026       21.76151        0.74068
H          1.56447       22.77239       -1.32170
H          1.64803       23.13163        0.40940
H          3.14192       20.52232        1.33106
H          1.67422       19.53513        1.55327
H          1.70825       21.22365        2.11631
H          1.53815       19.01962       -0.96388
H          1.62558       20.34549       -2.14843
H          3.05792       19.91237       -1.17994
H          4.01374       22.09232       -1.31273
H          3.79043       23.88463        1.16630
H          6.18383       22.97407       -0.62543
H          6.03255       24.60090        0.09178
H          6.28341       23.20024        1.14185
