24
5,5-DIMETHYL-1-HEXENE.gamout	Energy:    -314.0140860
C         -0.30122       -0.29713        0.08365
C         -1.84182       -0.47152        0.00072
C          0.23544        1.13470        0.26969
C         -2.13466       -1.97062       -0.20773
C         -2.51945       -0.01047        1.30584
C         -2.42278        0.31775       -1.18885
C          1.73317        1.17549        0.40499
C          2.57176        1.81683       -0.41447
H          0.14763       -0.71895       -0.83337
H          0.06989       -0.92327        0.91628
H         -0.21452        1.57572        1.17806
H         -0.06903        1.77234       -0.57675
H         -3.21945       -2.15863       -0.27253
H         -1.67414       -2.34324       -1.13806
H         -1.74001       -2.57571        0.62585
H         -3.60425       -0.20631        1.27356
H         -2.38740        1.06934        1.48110
H         -2.11066       -0.54562        2.17969
H         -1.93733        0.02689       -2.13587
H         -3.50330        0.12460       -1.29472
H         -2.29537        1.40513       -1.06590
H          2.15181        0.61314        1.25161
H          3.65418        1.79858       -0.25726
H          2.20608        2.38932       -1.27435
