24
5,5-DIMETHYL-CIS-2-HEXENE.gamout	Energy:    -314.0183857
C          3.15433        2.63859        2.96565
C          2.09698        1.95814        2.04081
C          4.47818        1.93402        3.09331
C          1.78177        0.53179        2.53064
C          0.80988        2.80206        2.08932
C          2.61509        1.90292        0.59240
C          5.68456        2.35737        2.68230
C          6.03339        3.63820        1.98041
H          2.70732        2.71902        3.97492
H          3.30167        3.67263        2.61348
H          4.44621        0.96071        3.59799
H          0.98253        0.07741        1.92150
H          2.66153       -0.12751        2.46351
H          1.43983        0.53414        3.57972
H          0.40489        2.85882        3.11385
H          0.99480        3.83345        1.74499
H          0.02752        2.36903        1.44390
H          1.87427        1.42850       -0.07292
H          2.81520        2.91478        0.20104
H          3.55165        1.32711        0.52214
H          6.53754        1.69577        2.88368
H          6.51233        3.43335        1.00617
H          5.16250        4.28326        1.79394
H          6.76538        4.22099        2.56796
