12
5-FLUOROURACIL.gamout	Energy:    -513.4207938
F         -2.45426       -0.86085       -0.00009
O         -1.56481        1.78687        0.00032
O          2.79649        0.35684        0.00012
N          0.60337        1.04341        0.00019
N          1.12872       -1.21354       -0.00010
C         -0.79040        0.85641        0.00019
C          1.61601        0.08956        0.00009
C         -1.15622       -0.56820       -0.00001
C         -0.21248       -1.53449       -0.00012
H          0.91692        2.01154        0.00030
H          1.83466       -1.94114       -0.00018
H         -0.47828       -2.59298       -0.00030
