17
5-HEXEN-2-ONE.gamout	Energy:    -309.4373480
O         -2.38035        0.72338        1.30466
C         -0.67733       -0.11586       -0.15632
C          0.33463        0.76884        0.57687
C         -2.09550       -0.01354        0.38664
C          1.73442        0.62828        0.04631
C         -3.15543       -0.88086       -0.28009
C          2.48813        1.62434       -0.42893
H         -0.71374        0.12971       -1.23520
H         -0.37958       -1.18199       -0.12338
H          0.31311        0.50143        1.64896
H          0.00807        1.81991        0.52543
H          2.15428       -0.38770        0.06320
H         -3.96564       -0.23364       -0.65233
H         -3.59987       -1.54380        0.47983
H         -2.76555       -1.49057       -1.10805
H          3.50568        1.45192       -0.79170
H          2.11676        2.65459       -0.46832
