21
5-METHYL-CIS-2-HEXENE.gamout	Energy:    -274.7629227
C          1.04544        2.64648        3.10022
C          1.80237        1.96276        1.95394
C          0.82802        1.37620        0.92584
C          2.77728        0.86784        2.45609
C          3.85132        1.34764        3.39573
C          5.16350        1.47798        3.14175
C          5.89611        1.17312        1.86662
H          0.35414        3.41358        2.71458
H          1.72902        3.14263        3.80687
H          0.44507        1.91484        3.66981
H          2.41171        2.73375        1.44529
H          0.15374        2.14992        0.52298
H          0.19724        0.59073        1.37855
H          1.36199        0.92133        0.07480
H          3.23019        0.37675        1.57970
H          2.17898        0.08856        2.96796
H          3.51527        1.62551        4.40222
H          5.79510        1.85031        3.95902
H          5.24022        0.79622        1.06860
H          6.68687        0.42065        2.03806
H          6.40737        2.07410        1.48270
