14
5-METHYLFURFURAL.gamout	Energy:    -382.1780476
O          1.08164        1.07862        1.33746
O         -0.92497        2.32655        2.92495
C          1.76074        0.24833        0.51652
C          0.93905       -0.77653        0.09959
C         -0.19112        0.60107        1.46203
C         -0.32502       -0.54789        0.71190
C          3.18294        0.58233        0.23780
C         -1.14841        1.31285        2.30003
H          1.21694       -1.59135       -0.56601
H         -1.22856       -1.14847        0.61916
H          3.62369       -0.16323       -0.43813
H          3.27060        1.57647       -0.23180
H          3.77411        0.60472        1.16860
H         -2.15446        0.81660        2.31550
