27
5-METHYL-3-HEPTANOL.gamout	Energy:    -390.3623432
C          3.48498        3.64191        3.00767
C          2.50651        2.80538        2.14512
C          4.77934        3.00263        3.55124
C          2.17512        1.44150        2.78645
C          2.93183        2.68062        0.67303
C          5.84893        2.60063        2.52801
O          5.41690        3.91675        4.44062
C          0.98559        0.70712        2.16095
C          6.39924        3.74667        1.67593
H          2.92255        3.97135        3.90319
H          3.74975        4.56807        2.46916
H          1.56504        3.38742        2.14406
H          4.50355        2.08397        4.10796
H          1.96618        1.60061        3.86019
H          3.06555        0.78852        2.74749
H          3.16753        3.66834        0.24484
H          2.12720        2.24410        0.06100
H          3.82149        2.04348        0.54735
H          5.45144        1.79570        1.88877
H          6.67712        2.15418        3.10498
H          4.75962        4.23434        5.07301
H          0.75146       -0.21235        2.72147
H          0.07939        1.33703        2.16336
H          1.18053        0.41213        1.11747
H          6.77589        4.55504        2.32032
H          5.63572        4.17340        1.00621
H          7.23200        3.39726        1.04447
