32
5-METHYLNONANE.gamout	Energy:    -393.7491874
C          5.42392        3.04805        2.14265
C          4.74091        1.83536        1.47477
C          3.54886        2.19756        0.56893
C          5.74383        0.95629        0.71551
C          6.04771        4.08743        1.20395
C          2.40772        2.99847        1.21454
C          6.66606        5.29561        1.92426
C          1.71510        2.34280        2.41687
C          7.89344        4.97591        2.78058
C          1.03210        1.00913        2.10968
H          4.69451        3.55904        2.79620
H          6.19965        2.65610        2.82325
H          4.35010        1.21898        2.30569
H          3.14486        1.25804        0.15274
H          3.91516        2.76277       -0.30664
H          6.59919        0.68201        1.35433
H          6.14468        1.46313       -0.17857
H          5.27078        0.02174        0.37272
H          6.82446        3.61481        0.57526
H          5.28107        4.45975        0.50317
H          1.64910        3.19958        0.43628
H          2.77870        3.99128        1.52319
H          5.89405        5.77787        2.55280
H          6.94622        6.04856        1.16654
H          0.96150        3.05150        2.80253
H          2.43797        2.20641        3.24097
H          8.32022        5.89202        3.21943
H          8.68749        4.49800        2.18085
H          7.65516        4.29595        3.61440
H          1.75281        0.23077        1.80938
H          0.30111        1.11423        1.28962
H          0.49021        0.62763        2.98960
