21
5-METHYL-1-HEXENE.gamout	Energy:    -274.7595635
C          3.39244        2.42627        2.34236
C          2.08922        2.16398        1.56282
C          3.47933        3.79501        3.04144
C          2.20868        0.87079        0.74432
C          0.85288        2.11586        2.47150
C          4.78768        4.00659        3.75206
C          5.67520        4.96952        3.48622
H          3.52835        1.62243        3.09141
H          4.24575        2.34027        1.64641
H          1.95343        3.00134        0.85101
H          2.65884        3.88290        3.77750
H          3.32624        4.60048        2.30135
H          2.35138       -0.00278        1.40427
H          3.06667        0.90893        0.05309
H          1.30176        0.68819        0.14447
H          0.69483        3.06014        3.01615
H          0.94747        1.30890        3.21942
H         -0.06082        1.91975        1.88637
H          5.01746        3.28457        4.54872
H          6.61257        5.05569        4.04363
H          5.49671        5.71294        2.70108
