24
5-METHYL-TRANS-3-HEPTENE.gamout	Energy:    -314.0159870
C          1.03214        2.90600        3.91455
C          1.47701        2.12509        2.66874
C          2.96591        2.14488        2.45330
C          3.75497        1.06465        2.37802
C          5.26128        1.07797        2.16251
C          5.99903        1.78923        3.32353
C          5.62910        1.66571        0.78657
C          7.51129        1.55530        3.36223
H          1.35014        3.96092        3.85831
H         -0.06460        2.89369        4.02318
H          1.47014        2.47675        4.83052
H          1.12792        1.07988        2.73432
H          0.97665        2.56343        1.78369
H          3.41557        3.14399        2.35666
H          3.28409        0.07714        2.47828
H          5.59886        0.02536        2.16849
H          5.78901        2.87308        3.26938
H          5.55705        1.44679        4.27507
H          5.34502        2.72949        0.72613
H          6.71021        1.59152        0.58694
H          5.10253        1.13611       -0.02320
H          7.97005        2.07185        4.22113
H          7.74583        0.48134        3.45859
H          8.01439        1.92377        2.45366
