19
5-METHYL-1-HEXYNE.gamout	Energy:    -273.5145202
C          3.45673        2.46426        1.78455
C          2.07038        2.05783        1.25097
C          4.63272        1.65380        1.20234
C          1.69231        0.61836        1.62704
C          1.00169        3.04434        1.74080
C          5.94170        2.11418        1.66790
C          7.01787        2.50737        2.06377
H          3.63182        3.53108        1.56445
H          3.46745        2.37186        2.88567
H          2.10552        2.12169        0.14587
H          4.52455        0.58540        1.45763
H          4.60527        1.70629        0.09814
H          1.67668        0.49002        2.72364
H          0.68923        0.36012        1.24979
H          2.39492       -0.12278        1.21416
H          0.00796        2.79278        1.33559
H          0.92489        3.02807        2.84196
H          1.23559        4.07837        1.43917
H          7.97334        2.85172        2.41156
