24
6-METHYL-CIS-2-HEPTENE.gamout	Energy:    -314.0154337
C         -1.38686       -2.37206       -0.01379
C          0.01318       -1.95861       -0.36726
C          0.42336       -0.79009       -0.88569
C         -0.41128        0.40152       -1.27741
C          0.14023        1.77778       -0.84764
C          0.10264        2.14959        0.65337
C         -1.30648        2.03340        1.25205
C          1.13143        1.39135        1.50482
H         -1.70539       -3.24055       -0.61834
H         -2.12495       -1.57180       -0.16967
H         -1.45090       -2.69089        1.04189
H          0.78330       -2.71767       -0.17799
H          1.49812       -0.68224       -1.08489
H         -1.44976        0.28528       -0.92949
H         -0.47136        0.41718       -2.38332
H         -0.43631        2.54491       -1.39487
H          1.18110        1.87064       -1.20984
H          0.38307        3.21935        0.69352
H         -1.63295        0.98224        1.32172
H         -2.05193        2.57704        0.64711
H         -1.33867        2.45050        2.27217
H          1.13786        1.77158        2.54036
H          2.15130        1.50895        1.10190
H          0.91281        0.31301        1.54550
