24
6-METHYL-1-HEPTENE.gamout	Energy:    -314.0144508
C          3.48450        1.84741        2.28044
C          4.66161        1.16050        2.98290
C          2.10043        1.22209        2.54477
C          6.04124        1.78721        2.68873
C          1.66987        1.32936        4.01464
C          1.04308        1.85245        1.62808
C          6.49634        1.67153        1.25859
C          7.56138        0.97917        0.84228
H          3.45574        2.91485        2.57561
H          3.65948        1.83836        1.19021
H          4.50659        1.18565        4.07497
H          4.68712        0.09293        2.69660
H          2.16838        0.14642        2.28961
H          6.79471        1.31582        3.34259
H          6.00671        2.85748        2.97094
H          1.61061        2.38639        4.32970
H          2.36742        0.81661        4.69544
H          0.67412        0.88209        4.16851
H          0.05370        1.38806        1.77284
H          0.93629        2.93205        1.83447
H          1.31211        1.74313        0.56434
H          5.89362        2.20000        0.50833
H          8.20288        0.43716        1.54652
H          7.83676        0.92965       -0.21532
