50
7,8-DIMETHYLTETRADECANE.gamout	Energy:    -629.2851320
C          8.31534        0.97586        0.33308
C          6.90607        1.56896        0.39977
C          5.79936        0.55899        0.07769
C          4.38020        1.13709        0.14848
C          3.27510        0.11217       -0.14242
C          1.85472        0.69405       -0.05227
C          0.69771       -0.33026       -0.11865
C         -0.69664        0.33304        0.11313
C         -1.85359       -0.69193        0.04824
C         -3.27464       -0.11094        0.14022
C         -4.38070       -1.13669       -0.14742
C         -5.80090       -0.56017       -0.07475
C         -6.90691       -1.57205       -0.39350
C         -8.31716       -0.98130       -0.32572
H          8.43356        0.14101        1.04502
H          8.53947        0.58358       -0.67361
H          9.08192        1.72925        0.57482
H          6.73184        1.99040        1.40719
H          6.83470        2.42371       -0.29831
H          5.97420        0.13825       -0.93083
H          5.87613       -0.29684        0.77541
H          4.21699        1.57482        1.15166
H          4.29590        1.98150       -0.56209
H          3.45148       -0.32681       -1.14001
H          3.36488       -0.72584        0.57549
H          1.79067        1.24952        0.89594
H          1.71248        1.44710       -0.85167
C          0.75663       -1.11386       -1.43950
H          0.85085       -1.05030        0.71072
C         -0.75457        1.11759        1.43332
H         -0.85053        1.05216       -0.71689
H         -1.78998       -1.24689       -0.90027
H         -1.70973       -1.44520        0.84715
H         -3.44927        0.32947        1.13755
H         -3.36594        0.72590       -0.57889
H         -4.21911       -1.57505       -1.15066
H         -4.29423       -1.98066        0.56346
H         -5.97453       -0.13797        0.93343
H         -5.87991        0.29443       -0.77380
H         -6.73372       -1.99485       -1.40060
H         -6.83349       -2.42583        0.30564
H         -9.08160       -1.73739       -0.56484
H         -8.54106       -0.58764        0.68052
H         -8.43882       -0.14832       -1.03932
H         -0.02090        1.93422        1.47042
H         -0.56187        0.45397        2.29534
H         -1.74243        1.57599        1.58457
H          1.74442       -1.57270       -1.58998
H          0.56511       -0.44958       -2.30126
H          0.02256       -1.93000       -1.47765
