18
8-HYDROXYQUINOLINE.gamout	Energy:    -476.5364055
C         -3.49811       -3.42855        1.27516
C         -2.10715       -3.61768        1.00924
C         -4.38947       -4.52141        1.09549
C         -3.88040       -2.12953        1.70792
C         -1.62541       -4.89517        0.56763
N         -1.17534       -2.64127        1.14903
C         -2.51871       -5.94043        0.40214
O         -0.31209       -5.02215        0.33095
C         -3.89560       -5.74055        0.66899
C         -2.92328       -1.14490        1.84621
C         -1.56867       -1.45055        1.55204
H         -5.45504       -4.38586        1.29656
H         -4.93235       -1.92413        1.92736
H         -2.14667       -6.91038        0.06606
H          0.06574       -4.13863        0.52794
H         -4.58105       -6.58124        0.53076
H         -3.19085       -0.13861        2.17694
H         -0.79720       -0.67821        1.65728
