24
8-METHOXYPSORALEN.gamout	Energy:    -761.9880929
O          3.55191        1.25080        0.11785
O         -1.05775       -0.14367        0.23999
O          1.43860       -0.93463        0.34564
O         -3.17605       -0.82832        0.30075
C          1.86806        2.77746       -0.06088
C          2.19413        1.40497        0.09170
C         -0.46074        2.18978       -0.01104
C         -0.10871        0.82401        0.14042
C          1.23509        0.38572        0.19773
C          0.53289        3.17827       -0.11289
C          3.14222        3.46099       -0.12774
C         -1.87475        2.48897       -0.05263
C          4.09383        2.50043       -0.01591
C         -2.80378        1.50975        0.04843
C         -2.42319        0.10419        0.20407
C          2.75121       -1.46981        0.41412
H          0.25336        4.22740       -0.22910
H          3.31148        4.52934       -0.24413
H         -2.17940        3.53342       -0.16922
H          5.18073        2.53766       -0.01284
H         -3.87602        1.70882        0.01979
H          2.62572       -2.55424        0.53385
H          3.30965       -1.06904        1.27539
H          3.32152       -1.26739       -0.50679
