20
8-METHYLQUINOLINE.gamout	Energy:    -440.6524632
C         -1.61956       -4.90293        0.56447
C         -0.15444       -5.09969        0.28477
C         -2.08749       -3.61870        1.00571
C         -2.54369       -5.92198        0.41129
C         -3.48441       -3.42344        1.27439
N         -1.17899       -2.61609        1.15640
C         -3.92419       -5.72971        0.67639
C         -4.39119       -4.50528        1.10036
C         -3.89209       -2.13367        1.70851
C         -1.59674       -1.43630        1.56010
C         -2.95281       -1.13621        1.85323
H          0.05273       -6.12875       -0.04456
H          0.19619       -4.40135       -0.49190
H          0.45028       -4.88418        1.18000
H         -2.20103       -6.90528        0.07592
H         -4.61642       -6.56504        0.54079
H         -5.45386       -4.34913        1.30699
H         -4.94930       -1.94982        1.92288
H         -0.83535       -0.65265        1.67010
H         -3.23175       -0.13320        2.18500
