30
9,10-DIMETHYLANTHRACENE.gamout	Energy:    -617.3071222
C          2.14116        2.20170        4.64961
C          0.85448        1.99509        5.41877
C          2.13471        2.89857        3.41611
C          3.36579        1.69333        5.14851
C          3.37252        3.11917        2.69084
C          0.91894        3.39940        2.83714
C          4.60371        1.91402        4.42322
C          3.42956        0.94163        6.37161
C          4.59712        2.61090        3.18960
C          3.30890        3.87073        1.46774
C          0.90680        4.09610        1.65510
C          5.81950        1.41320        5.00235
C          4.61439        0.46827        6.87604
C          5.88305        2.81811        2.41933
C          2.12407        4.34420        0.96336
C          5.83164        0.71646        6.18434
H          0.14298        2.81530        5.25724
H          1.02612        1.94566        6.50182
H          0.34581        1.05866        5.12568
H         -0.02727        3.21623        3.34592
H          2.50855        0.73292        6.91520
H          4.23002        4.07920        0.92413
H         -0.03722        4.46611        1.24627
H          6.76573        1.59643        4.49377
H          4.62544       -0.09604        7.81237
H          5.71049        2.86531        1.33625
H          6.59602        1.99944        2.58174
H          6.39034        3.75594        2.71030
H          2.11302        4.90840        0.02696
H          6.77568        0.34652        6.59322
