26
A-PINENE.gamout	Energy:    -390.0972349
C         -3.33111        2.61860        0.87826
C         -2.20608        2.08299       -0.09561
C         -2.91659        0.69242        0.09434
C         -2.08607        2.67696       -1.49999
H         -3.04006        2.71302       -2.04257
H         -1.37235        2.09056       -2.10417
H         -1.69611        3.70830       -1.44706
C         -0.81289        2.11888        0.55190
H         -0.09513        1.53557       -0.04993
H         -0.79055        1.71461        1.57421
H         -0.43713        3.15523        0.59769
C         -4.63912        2.82418        0.12017
C         -4.16072        0.57543       -0.80588
C         -5.02715        1.80957       -0.67313
H         -4.73366       -0.33067       -0.53002
H         -3.86560        0.42362       -1.86198
C         -3.36490        1.18801        1.49643
H         -2.28390       -0.20924        0.02949
H         -2.60252        1.03094        2.27040
H         -4.33915        0.83636        1.86898
H         -3.07840        3.47422        1.52459
H         -5.95765        1.86079       -1.25080
C         -5.41953        4.10871        0.28502
H         -4.92387        4.79655        0.98695
H         -6.43679        3.92340        0.66995
H         -5.53247        4.64321       -0.67383
