7
AC-1.gamout	Energy:    -228.2136549
C         -4.72887        1.29180        0.00346
C         -4.71764       -0.28797        0.00548
H         -5.44862       -0.67102        0.74203
H         -3.71745       -0.69567        0.23286
H         -5.04609       -0.66507       -0.98156
O         -3.62243        1.84306        0.18945
O         -5.85650        1.79796       -0.19182
