22
ACENAPHTHENE.gamout	Energy:    -462.6826618
C          3.29973        3.00733        1.73575
C          4.07812        3.98315        2.40161
C          1.93426        3.36789        1.64908
C          3.83008        1.80177        1.21397
C          3.17156        5.12983        2.81631
C          5.43146        3.75939        2.55804
C          1.74456        4.72060        2.31534
C          1.05899        2.50328        1.02238
C          2.90182        0.93109        0.57313
C          5.22943        1.59984        1.39100
C          5.99332        2.55470        2.04331
C          1.56386        1.28227        0.48725
H          3.19124        5.28084        3.90887
H          3.50227        6.08261        2.36912
H          6.07763        4.48170        3.06513
H          1.33411        5.46108        1.60813
H          1.02386        4.65976        3.14839
H         -0.00617        2.73342        0.92817
H          3.25062       -0.01539        0.15005
H          5.69686        0.68759        1.00930
H          7.06614        2.38301        2.17024
H          0.86575        0.60133       -0.00833
