15
ACETYLACETONE.gamout	Energy:    -345.3411836
C          2.44618        1.67785        0.96614
C          1.40069        2.34639        1.87241
C          3.65226        1.29631        1.83838
C          0.40734        1.41657        2.53112
O          1.42565        3.54014        2.06964
C          4.72515        2.35190        1.97727
O          3.69060        0.22938        2.40843
H          2.73410        2.40054        0.18948
H          2.04669        0.75744        0.51732
H          0.93866        0.56550        2.98868
H         -0.27147        0.99747        1.76865
H         -0.17732        1.96090        3.28456
H          4.26391        3.32121        2.22959
H          5.24188        2.48537        1.01132
H          5.45229        2.05580        2.74513
