22
ACETAL.gamout	Energy:    -386.9808365
C          5.48809        0.66143        1.95809
C          4.43439        1.73549        1.73364
O          3.20144        1.10362        1.64170
O          4.39507        2.66253        2.80314
C          2.11083        1.93605        1.28275
C          0.86413        1.07811        1.17152
C          5.26660        3.76854        2.70776
C          5.00248        4.70133        3.87601
H          5.50179       -0.04626        1.11550
H          6.48934        1.10737        2.05912
H          5.24704        0.11261        2.88087
H          4.64582        2.30040        0.79306
H          1.97535        2.72957        2.03919
H          2.32652        2.43850        0.31573
H          0.64587        0.58810        2.13340
H         -0.00469        1.69435        0.89009
H          0.99665        0.29287        0.41051
H          5.11037        4.29888        1.74415
H          6.32696        3.44121        2.71995
H          5.17226        4.18107        4.83164
H          5.67075        5.57603        3.83118
H          3.96002        5.05658        3.86244
