19
ACETANILIDE.gamout	Energy:    -439.6865979
C          6.47028        1.86408       -0.66081
C          6.87266        0.57224       -0.30664
C          5.10521        2.14808       -0.75787
C          1.61718       -2.49613        0.45965
C          2.26412       -1.16650        0.09466
C          4.13913        1.16936       -0.50879
C          4.54638       -0.12980       -0.15295
N          3.64295       -1.17792        0.11504
C          5.92145       -0.41583       -0.05503
O          1.59279       -0.18946       -0.17892
H          7.21395        2.63988       -0.85866
H          7.93526        0.32819       -0.22481
H          4.77632        3.15390       -1.03361
H          2.32589       -3.32676        0.59514
H          1.04222       -2.36257        1.38953
H          0.89829       -2.76113       -0.33002
H          3.07714        1.39076       -0.58403
H          4.07740       -2.05964        0.35923
H          6.24587       -1.42441        0.22151
