17
ACETOPHENONE.gamout	Energy:    -384.3803649
O         -2.32497       -1.36975        0.00000
C         -0.32558       -0.10808       -0.00000
C          1.07864       -0.04258       -0.00000
C         -1.05987        1.09370       -0.00000
C         -1.10888       -1.39450       -0.00000
C          1.73189        1.19363        0.00000
C         -0.40960        2.32559        0.00000
C          0.99051        2.37822        0.00000
C         -0.39645       -2.73941        0.00000
H          1.67796       -0.95410       -0.00000
H         -2.14934        1.02497       -0.00000
H          2.82416        1.23006        0.00000
H         -0.99183        3.25064        0.00000
H          1.50244        3.34410        0.00000
H         -0.73064       -3.30433        0.88457
H         -0.73064       -3.30434       -0.88457
H          0.69878       -2.69358       -0.00000
