9
ACETAMIDE.gamout	Energy:    -208.9448904
C          2.48380        2.52274        0.83261
C          1.95627        1.10483        0.65398
N          0.64045        0.92210        0.97843
O          2.66202        0.19733        0.25693
H          2.97773        2.83125       -0.10078
H          1.71179        3.26108        1.09662
H          3.25531        2.51401        1.61871
H          0.25129       -0.00984        0.88965
H          0.05423        1.66386        1.33538
