14
ACETOIN.gamout	Energy:    -307.2776380
O         -0.51464        0.39581       -0.58935
O          0.52150       -2.95736       -0.21233
C         -0.78527       -0.99224       -0.51521
C          0.54176       -1.75439       -0.35171
C         -1.75496       -1.34436        0.61307
C          1.81873       -0.94890       -0.38421
H         -1.20617       -1.36191       -1.47540
H         -1.36860       -0.97970        1.57847
H         -1.88386       -2.43475        0.67179
H         -2.74240       -0.88477        0.43824
H          2.67839       -1.61550       -0.23671
H          1.79073       -0.16495        0.38893
H          1.90218       -0.41491       -1.34487
H         -1.35427        0.86580       -0.66875
