10
ACETONE.gamout	Energy:    -192.8956085
C         -0.00000        0.00000        0.18710
O          0.00000       -0.00000        1.39754
C         -0.00000        1.29201       -0.61347
C          0.00000       -1.29201       -0.61347
H         -0.00000        2.15154        0.07022
H          0.00000       -2.15154        0.07022
H          0.88583        1.33982       -1.26945
H         -0.88583        1.33982       -1.26945
H         -0.88583       -1.33982       -1.26945
H          0.88583       -1.33982       -1.26945
