7
ACETYL_CHLORIDE.gamout	Energy:    -613.0534577
C          2.09587        2.39756        0.92548
C          1.76730        0.93102        0.95887
Cl        -0.02840        0.64716        0.85037
O          2.51780        0.01945        1.04353
H          1.59584        2.90540        1.76422
H          1.70803        2.84078       -0.00428
H          3.18436        2.53116        0.98984
