23
ACRIDINE.gamout	Energy:    -554.8258484
N         -0.00001        1.36678       -0.00000
C         -1.21468       -0.75918        0.00000
C          1.21471       -0.75915       -0.00000
C         -1.15595        0.68893        0.00000
C          1.15595        0.68896       -0.00000
C          0.00002       -1.45621       -0.00000
C         -2.49215       -1.40458        0.00000
C          2.49220       -1.40452       -0.00000
C         -2.38996        1.41941        0.00000
C          2.38994        1.41947        0.00000
C         -3.64904       -0.66571       -0.00000
C          3.64907       -0.66563        0.00000
C         -3.59504        0.76249        0.00000
C          3.59504        0.76257        0.00000
H          0.00004       -2.55129       -0.00000
H         -2.52707       -2.49802        0.00000
H          2.52715       -2.49796        0.00000
H         -2.32504        2.50952       -0.00000
H          2.32500        2.50957       -0.00000
H         -4.62062       -1.16653        0.00000
H          4.62066       -1.16642        0.00000
H         -4.52790        1.33280       -0.00000
H          4.52788        1.33291       -0.00000
