9
ACRYLIC_ACID.gamout	Energy:    -266.8286515
C          2.70131        2.33387        0.22152
C          1.81978        1.14445        0.36843
O          0.51993        1.46865        0.19559
O          2.18493        0.01804        0.61092
C          4.02687        2.22424        0.35645
H          2.21263        3.28659        0.00069
H          0.01214        0.64608        0.30592
H          4.68743        3.08878        0.25133
H          4.47733        1.25185        0.57772
