7
ACRYLONITRILE.gamout	Energy:    -170.6013457
C          1.13735        0.84320        0.15639
C          2.56290        0.96667        0.06860
C          3.20263        2.14553        0.06571
N         -0.01564        0.72131        0.22662
H          3.11828        0.02471        0.00217
H          4.29258        2.18558       -0.00308
H          2.66229        3.09354        0.13134
