20
ADIPIC_ACID.gamout	Energy:    -534.9160266
C          6.02968        5.71066       -3.72700
C          5.78556        4.89477       -2.45511
C          7.00278        4.04535       -2.05742
C          4.80658        6.51428       -4.16113
C          6.78839        3.21145       -0.81376
C          5.06691        7.41489       -5.34973
O          6.41606        3.96731        0.24474
O          6.92386        2.01614       -0.73362
O          3.94273        8.04455       -5.75195
O          6.13190        7.57984       -5.89133
H          6.87788        6.40003       -3.57867
H          6.33572        5.04167       -4.55002
H          5.53000        5.56922       -1.62042
H          4.91107        4.23405       -2.59648
H          7.86496        4.71032       -1.87008
H          7.28566        3.35328       -2.86389
H          4.43688        7.15518       -3.33998
H          3.95469        5.86030       -4.41825
H          6.29686        3.35610        0.99245
H          4.19229        8.60664       -6.50588
