16
ADIPONITRILE.gamout	Energy:    -342.4639833
C         80.05889       -0.00595       -0.00015
C         81.52348       -0.04803        0.00034
C         79.49510        1.42743        0.00012
N         82.68193       -0.06338       -0.00005
C         77.96516        1.44389       -0.00012
C         77.40136        2.87727        0.00015
C         75.93676        2.91933       -0.00034
N         74.77831        2.93465        0.00005
H         79.70032       -0.56115       -0.88421
H         79.69962       -0.56163        0.88333
H         79.87786        1.96587        0.88386
H         79.87812        1.96630       -0.88325
H         77.58239        0.90545       -0.88386
H         77.58213        0.90502        0.88325
H         77.75991        3.43246        0.88422
H         77.76061        3.43295       -0.88334
