13
ALANINE.gamout	Energy:    -323.3285985
C          2.17828        1.61918        0.37543
C          0.82385        1.05830       -0.05011
C          0.81425       -0.46408        0.02917
N         -0.21386        1.62901        0.80858
O          2.14507        2.96684        0.47036
O          3.17865        0.98076        0.58062
H          0.96928       -0.79252        1.06758
H          1.60797       -0.89589       -0.59676
H         -0.15426       -0.85604       -0.32137
H         -0.22043        2.64550        0.72599
H         -1.13019        1.30038        0.50359
H          3.02823        3.25036        0.76381
H          0.72201        1.35721       -1.12041
