12
ALANINATE-1.gamout	Energy:    -322.7604510
O          1.26256        1.13500        0.01718
O          1.26707       -1.11354        0.28980
N         -1.41509       -1.29507        0.57193
C         -0.80795        0.04803        0.59911
C         -1.56295        1.03865       -0.27894
C          0.73842        0.02572        0.25125
H         -0.86219        0.42307        1.64411
H         -2.61396        1.17067        0.03796
H         -1.03548        2.00230       -0.25287
H         -1.56793        0.69673       -1.33206
H         -0.58713       -1.88951        0.73605
H         -1.60947       -1.49236       -0.41712
