15
ALLYL_ACETATE.gamout	Energy:    -345.3170941
C         -0.06702        1.24131        0.40815
C          1.04780        1.51236       -0.27372
C          2.30389        0.69747       -0.20109
O          3.39169        1.57929        0.09094
C          4.68070        1.15529        0.15721
O          5.54459        1.95787        0.38266
C          4.94464       -0.32370       -0.05651
H         -0.96743        1.85107        0.29529
H         -0.12537        0.39779        1.10464
H          1.08554        2.36934       -0.95654
H          2.21085       -0.08496        0.57239
H          2.48025        0.19779       -1.17235
H          4.63070       -0.64447       -1.06247
H          6.02066       -0.49963        0.05817
H          4.39454       -0.93988        0.67199
