11
ALLYLAMINE.gamout	Energy:    -173.0074141
C          0.02975        0.08975       -0.25132
C          1.14478        0.58751        0.29047
C          2.50625       -0.04760        0.21324
N          3.48949        0.90571       -0.29821
H         -0.93297        0.59982       -0.15294
H          0.03546       -0.85345       -0.80963
H          1.11288        1.54115        0.83291
H          2.81983       -0.32604        1.23748
H          2.43039       -0.99814       -0.35911
H          4.42414        0.49668       -0.28323
H          3.28825        1.12302       -1.27545
