10
ALLYL_ALCOHOL.gamout	Energy:    -192.8515703
C          0.06428       -0.75227        1.11972
C          0.40921       -0.19610        2.47900
C          1.23755        0.82282        2.71721
O         -0.84352       -1.82105        1.29676
H          0.99241       -1.08675        0.60809
H         -0.37133        0.05285        0.48950
H         -0.09302       -0.71120        3.30678
H          1.75274        1.35577        1.90970
H          1.43547        1.16745        3.73574
H         -1.06701       -2.17936        0.42921
