26
ALPHA-PINENE.gamout	Energy:    -390.1011193
C         -0.84744        0.66246        1.78886
C         -2.42221        0.97279       -0.10385
C          2.57498        1.24311       -0.29606
C         -0.45493       -0.53174       -1.56442
C          0.28291       -1.81724        0.46774
C          0.07068        0.67795       -0.73421
C         -0.91596       -1.12215       -0.20352
C          1.43072        0.28020       -0.17275
C          1.51399       -0.94026        0.38584
C         -1.07510        0.35820        0.30706
H          0.07810        1.67974       -1.19377
H         -1.81615       -1.76017       -0.18626
H         -1.29151       -0.27699       -2.22791
H          0.29699       -1.09940       -2.13408
H          0.05086       -2.05890        1.52284
H          0.47032       -2.79193       -0.02219
H          2.45820       -1.31291        0.79881
H         -0.87954        1.75115        1.96804
H         -1.64819        0.20999        2.39913
H          0.11593        0.29212        2.16269
H         -2.68119        0.79625       -1.15760
H         -3.23775        0.55531        0.51114
H         -2.41438        2.06432        0.05706
H          2.35116        2.19503        0.21969
H          3.50522        0.83493        0.12831
H          2.76364        1.50329       -1.35376
