24
ALPHA_DGLUCOSE.gamout	Energy:    -686.2933401
O          4.19601        2.71694       -0.24239
O          3.14487        1.67025       -2.47183
O          2.02755       -0.85976       -2.54125
O          0.32159        1.18826       -2.05806
O          2.04104        2.24958        0.22745
O         -0.37872        0.03100        1.77004
C          3.29638        1.66731       -0.05655
C          3.28744        0.84047       -1.34860
C          2.13715       -0.17862       -1.32190
C          0.79140        0.46749       -0.93010
C          0.92429        1.37383        0.30899
C          0.90817        0.59835        1.63415
H          3.99532        3.39093        0.42313
H          3.58182        2.50676       -2.24879
H          1.72167       -0.18974       -3.17422
H         -0.63764        1.26760       -1.98791
H         -0.39952       -0.51189        2.56753
H          3.61246        1.02081        0.79343
H          4.24448        0.27850       -1.39339
H          2.38516       -0.93374       -0.55518
H          0.08995       -0.34570       -0.67264
H          0.04230        2.03462        0.33019
H          1.13763        1.31813        2.44468
H          1.69670       -0.18085        1.65184
