6
AMMONIUM_CHLORIDE.gamout	Energy:    -517.0582126
N         -0.45746        2.51562       -0.43222
Cl        -2.75662        1.18148       -0.10865
H          0.42947        3.02462       -0.55974
H         -0.46574        1.67425        0.18149
H         -0.92375        2.10834       -1.26949
H         -1.26889        3.02334       -0.02393
