14
ANILINE.gamout	Energy:    -287.2177917
C         -0.40023        1.02914       -0.39148
C         -1.01950       -0.22663       -0.55833
C          0.94775        1.11735       -0.04213
C          1.71551       -0.03643        0.15047
C          1.10753       -1.28559       -0.01448
C         -0.23986       -1.38558       -0.36401
N         -2.37363       -0.31842       -0.85672
H         -0.98818        1.94107       -0.53483
H          1.40381        2.10413        0.07975
H          2.77114        0.03747        0.42223
H          1.69033       -2.20013        0.12910
H         -0.70116       -2.37046       -0.48620
H         -2.79475        0.49644       -1.28827
H         -2.68516       -1.18980       -1.27056
