16
ANISOLE.gamout	Energy:    -346.3086779
C          5.09548        1.11295        3.02815
O          4.06531        1.74857        3.74970
C          3.02328        2.30246        3.07597
C          2.02596        2.90156        3.86710
C          2.89457        2.30863        1.67810
C          0.92173        3.50049        3.26656
C          1.77746        2.91631        1.08882
C          0.78866        3.51395        1.87067
H          5.60145        1.80644        2.33139
H          5.82465        0.75856        3.76957
H          4.72001        0.24722        2.45160
H          2.14548        2.88288        4.95272
H          3.64999        1.84825        1.04040
H          0.15483        3.96292        3.89426
H          1.68724        2.91654       -0.00120
H         -0.07869        3.98484        1.40171
