18
ANISATE-1.gamout	Energy:    -534.0945905
O          3.07259        0.41129        0.00014
O         -3.11263       -1.27091        0.00179
O         -3.26933        0.99047        0.00145
C         -1.10878        0.00615        0.00706
C          1.70933        0.20684       -0.00004
C         -0.47375        1.25743        0.00757
C         -0.30540       -1.13625        0.00463
C          0.91593        1.36373        0.00241
C          1.09491       -1.05318        0.00024
C         -2.66344       -0.10362        0.00347
C          3.91386       -0.70405       -0.00052
H         -1.12432        2.13596        0.01221
H         -0.82509       -2.09836        0.00711
H          1.42034        2.33434        0.00063
H          1.69076       -1.96877       -0.00367
H          3.77318       -1.33973       -0.89745
H          3.77068       -1.34418        0.89257
H          4.94857       -0.32575       -0.00024
