24
ANTHRACENE.gamout	Energy:    -538.8011265
C         -0.02449       -0.18654       -0.00980
C         -1.16113       -0.90713       -0.28071
C          1.22125       -0.84390        0.25250
C          2.40023       -0.13611        0.53244
C          3.61481       -0.79099        0.78786
C          4.82446       -0.07884        1.07470
C          5.99772       -0.74757        1.32066
C         -1.12332       -2.33467       -0.30621
C          1.25959       -2.29124        0.22661
H         -0.05260        0.90682        0.00983
C          0.04995       -3.00340       -0.06023
C          2.47417       -2.94613        0.48207
H         -2.10391       -0.39029       -0.47884
H         -2.03757       -2.89339       -0.52356
H          0.07931       -4.09675       -0.07956
H          2.37201        0.95782        0.55200
C          3.65315       -2.23834        0.76197
H          2.50239       -4.04005        0.46248
C          4.89889       -2.89570        1.02427
H          4.79510        1.01451        1.09406
C          6.03553       -2.17512        1.29517
H          6.91196       -0.18886        1.53812
H          4.92702       -3.98906        1.00457
H          6.97831       -2.69196        1.49331
