24
ANTHRAQUINONE.gamout	Energy:    -687.8824365
C         -0.66847       -1.27193        0.10554
C         -2.08875       -0.82067       -0.01721
C          0.38925       -0.21462        0.09458
O         -0.38309       -2.45373        0.20891
C         -1.35990        1.60376       -0.14801
C          0.06039        1.15248       -0.02548
O         -1.64526        2.78554       -0.25171
C         -2.41760        0.54645       -0.13727
C         -3.10918       -1.78277       -0.01121
C          1.08083        2.11458       -0.03167
C         -3.76188        0.93041       -0.24928
C          1.73354       -0.59860        0.20641
C         -4.44315       -1.39172       -0.12309
C         -4.76998       -0.03338       -0.24221
C          2.74165        0.36517        0.19910
C          2.41481        1.72352        0.08004
H         -2.82706       -2.83331        0.08324
H          0.79871        3.16512       -0.12612
H         -3.98838        1.99459       -0.34098
H          1.96004       -1.66278        0.29811
H         -5.23465       -2.14579       -0.11768
H         -5.81622        0.27109       -0.32999
H          3.78790        0.06070        0.28677
H          3.20632        2.47758        0.07445
