30
APIGENIN.gamout	Energy:    -952.5442962
O         -0.05355        0.65163       -0.02760
O         -4.14482       -1.82664        0.06740
O         -1.85423       -3.00550        0.09118
O         -4.15207        2.94389       -0.06066
O          6.20646        0.83030       -0.02234
C         -2.07145       -0.64999        0.02100
C         -1.41528        0.59259       -0.01665
C          0.70645       -0.46999        0.01353
C          2.14643       -0.15993        0.00588
C         -1.30516       -1.88544        0.05670
C          0.13436       -1.70962        0.05712
C         -3.49564       -0.66803        0.03117
C         -2.10244        1.79903       -0.04524
C         -3.50419        1.75837       -0.03414
C         -4.19818        0.53973        0.00347
C          3.12340       -1.17234       -0.00087
C          2.58892        1.17875       -0.00048
C          4.47900       -0.86413       -0.01001
C          3.94151        1.49431       -0.01050
C          4.90260        0.47366       -0.01390
H          0.74256       -2.61075        0.09499
H         -1.57489        2.75018       -0.07496
H         -5.28983        0.50937        0.01207
H          2.83279       -2.22350       -0.00311
H          1.85413        1.98286        0.00444
H          5.21754       -1.67061       -0.01472
H          4.27804        2.53202       -0.01610
H         -3.43785       -2.53978        0.08460
H         -5.10617        2.78976       -0.04976
H          6.76389        0.04044       -0.01855
