42
ARTEMISININ.gamout	Energy:    -959.6249720
O         -1.52359       -3.27384       -1.45392
O         -2.17125       -2.77572        1.26709
O         -0.81434       -4.61058        1.25987
O         -2.74944       -3.65327       -0.78600
O          0.09858       -6.61215        1.13158
C         -0.49576       -2.87126       -0.51256
C         -0.33708       -1.33546       -0.69408
C          0.76127       -3.65823       -0.92653
C          0.97144       -0.78104       -0.07268
C         -0.89724       -3.22087        0.93418
C          2.01610       -3.11732       -0.22525
C         -1.58773       -0.56426       -0.21161
C          2.18942       -1.62031       -0.49292
C          0.49393       -5.16727       -0.75637
C         -3.07318       -2.65684        0.15853
C         -2.95158       -1.23662       -0.44472
C          1.19449        0.69964       -0.40750
C         -0.05077       -5.53578        0.61922
C          1.66301       -6.07455       -1.14488
C         -4.46269       -3.00855        0.65845
H         -0.25990       -1.21200       -1.78998
H          0.88626       -3.47466       -2.00896
H          0.87829       -0.85898        1.02806
H         -0.20543       -2.71162        1.62371
H          2.90097       -3.66296       -0.58784
H          1.96815       -3.30814        0.86286
H         -1.61028        0.42237       -0.70055
H         -1.48730       -0.36626        0.86846
H          3.08623       -1.24580        0.02908
H          2.37452       -1.46665       -1.57266
H         -0.35337       -5.39171       -1.42910
H         -3.72097       -0.60264        0.02426
H         -3.19767       -1.29940       -1.51597
H          1.22458        0.85729       -1.49974
H          0.40543        1.34681        0.00346
H          2.15507        1.04949        0.00390
H          1.35345       -7.12767       -1.10681
H          2.00671       -5.84572       -2.16637
H          2.51620       -5.96364       -0.45809
H         -4.67984       -2.41000        1.55451
H         -5.21600       -2.79880       -0.11472
H         -4.49790       -4.07395        0.92644
