24
AZOBENZENE.gamout	Energy:    -571.9953673
C          6.12911        1.70395       -0.42215
C          6.71019        0.42656       -0.36384
C          4.72632        1.83445       -0.43787
N          7.03475        2.79079       -0.46148
C          5.90339       -0.71226       -0.32150
C          3.92767        0.69454       -0.39548
C          4.51139       -0.58046       -0.33724
N          6.51587        3.92918       -0.51301
C          7.42150        5.01602       -0.55234
C          9.03922        7.30043       -0.63726
C          7.64723        7.43224       -0.65292
C          9.62294        6.02542       -0.57910
C          6.84043        6.29342       -0.61057
C          8.82429        4.88552       -0.53664
H          7.80027        0.35804       -0.35298
H          4.29464        2.83520       -0.48324
H          6.36052       -1.70418       -0.27625
H          2.83867        0.79344       -0.40758
H          3.87669       -1.47011       -0.30422
H          9.67392        8.19008       -0.67036
H          7.19008        8.42416       -0.69808
H         10.71194        5.92652       -0.56708
H          5.75035        6.36194       -0.62141
H          9.25598        3.88477       -0.49135
