26
B-PINENE.gamout	Energy:    -390.0960851
C         -0.11390        2.47573       -0.54611
C          1.27573        2.59190        0.08799
C          1.97716        1.18985        0.20488
C          1.12970        1.03390        1.51971
C          1.12017        2.58242        1.63257
H          1.99444        2.98552        2.16108
H          0.21164        3.04957        2.04838
H          1.85828        3.40601       -0.37557
C          3.47868        1.31978        0.49799
H          3.70016        2.03859        1.30088
H          4.02170        1.65226       -0.40320
H          3.90152        0.34620        0.79883
C          1.79044        0.17069       -0.92245
H          0.74069        0.00924       -1.20401
H          2.20858       -0.80790       -0.63024
H          2.32915        0.49607       -1.82926
C         -0.29545        0.55622        1.21873
H          1.58118        0.45101        2.34017
C         -0.95612        1.37212        0.10223
H         -0.90158        0.63561        2.13904
H         -0.29598       -0.51437        0.94887
H         -0.02870        2.29242       -1.63148
H         -0.63585        3.44403       -0.44349
C         -2.21097        1.12636       -0.29502
H         -2.81412        0.33601        0.16404
H         -2.68420        1.70492       -1.09523
