26
BACLOFEN.gamout	Energy:   -1052.7271284
Cl        -4.68498        0.32983        0.27898
O          2.31136        2.79065        0.04341
O          1.90601        1.55973       -1.78579
N          3.03105       -2.53733        0.47580
C          1.29397       -0.74515       -0.11980
C         -0.19582       -0.45479       -0.01759
C          2.15401        0.44001        0.34683
C          1.66670       -2.05932        0.62261
C         -1.00323       -0.42083       -1.16562
C         -0.81362       -0.22960        1.22507
C          2.09276        1.62424       -0.59524
C         -2.37769       -0.18201       -1.08525
C         -2.18575        0.00932        1.32598
C         -2.96375        0.03038        0.16477
H          1.52699       -0.89727       -1.18705
H          1.89948        0.77159        1.36512
H          3.21454        0.12826        0.37553
H          0.98005       -2.84726        0.26779
H          1.45933       -1.94712        1.70105
H         -0.54544       -0.57232       -2.14672
H         -0.21994       -0.24226        2.14367
H          3.70441       -1.94307        0.95684
H          3.31133       -2.58282       -0.50432
H         -2.99416       -0.15548       -1.98579
H         -2.65469        0.17858        2.29709
H          2.28758        3.48961       -0.63381
