53
BEHA+1.gamout	Energy:    -684.9398288
C         -2.54555        2.21920       -0.12678
C         -0.00258        2.46874       -0.29979
N         -1.35205        3.14477       -0.18442
H         -1.36026        3.74188        0.65477
H         -1.47234        3.79950       -0.96871
C         -3.87889        2.96748        0.00155
H         -2.37821        1.54360        0.72673
H         -2.51088        1.61787       -1.04607
C         -5.01032        1.94140       -0.23218
C         -6.44063        2.49526       -0.26281
H         -4.93920        1.15901        0.54661
H         -4.81755        1.43024       -1.19218
C         -7.48816        1.42708       -0.59887
H         -6.50146        3.31100       -1.00709
H         -6.69243        2.94814        0.71203
C         -8.91766        1.97051       -0.63326
H         -9.02835        2.76878       -1.38661
H         -9.21259        2.39146        0.34285
H         -9.63699        1.17612       -0.88256
H         -7.42279        0.60636        0.13949
H         -7.24178        0.97249       -1.57625
C          1.20010        3.42188       -0.30234
H         -0.03540        1.87011       -1.22364
H          0.05316        1.77514        0.55068
C          2.47728        2.54308       -0.23921
C          3.76096        3.27989        0.16875
H          2.62103        2.05611       -1.22190
H          2.30854        1.72241        0.48054
C          4.98012        2.35334        0.28098
H          3.59460        3.78331        1.13952
H          3.99044        4.08397       -0.55351
C          6.25883        3.07878        0.70333
H          6.14530        3.55861        1.69027
H          6.53753        3.86424       -0.01897
H          7.10397        2.37752        0.77303
H          5.14538        1.85043       -0.68950
H          4.75740        1.54719        1.00406
C         -3.99993        3.72305        1.34832
H         -3.92299        3.70647       -0.82354
C         -4.67135        5.09470        1.25112
H         -4.09859        5.78245        0.60704
H         -4.75701        5.56122        2.24362
H         -5.68446        5.02074        0.83138
H         -3.00170        3.85988        1.81058
H         -4.54345        3.08499        2.06658
C          1.21948        4.38664       -1.50945
H          1.16623        4.01762        0.63254
C          0.40771        5.68151       -1.37525
H          0.70445        6.25010       -0.47882
H         -0.68784        5.53359       -1.31874
H          0.57280        6.33222       -2.24596
H          0.91838        3.83632       -2.42119
H          2.26537        4.67605       -1.68428
