21
BENZYL_ACETATE.gamout	Energy:    -498.7838024
O          0.83068        3.61581        1.85141
C          1.77677        4.45073        1.15711
C          3.16972        3.97478        1.47457
C         -0.47444        3.91489        1.67834
C          3.63563        3.96948        2.80012
C          4.02625        3.53414        0.45653
C         -1.35460        2.96531        2.45542
O         -0.85825        4.82502        0.98610
C          4.92672        3.53125        3.09817
C          5.32268        3.09831        0.75169
C          5.77502        3.09433        2.07338
H          1.61948        5.49575        1.47501
H          1.57311        4.41260        0.07551
H          2.97590        4.30930        3.60334
H          3.67473        3.53176       -0.57953
H         -2.40768        3.22711        2.29644
H         -1.16981        1.93066        2.12663
H         -1.11083        3.01721        3.52793
H          5.27583        3.53096        4.13442
H          5.97836        2.75798       -0.05429
H          6.78665        2.75195        2.30720
