32
BENZO-B-FLUORANTHENE.gamout	Energy:    -768.3646010
C         -0.16313       -0.57451       -0.00010
C         -0.41195        0.83961       -0.00010
C         -1.37954       -1.30157       -0.00010
C          1.10853       -1.15997       -0.00010
C         -1.87866        0.99996       -0.00010
C         -2.46783       -0.30194       -0.00010
C          2.24889       -0.25001       -0.00010
C          0.65522        1.69508       -0.00010
C          2.00028        1.16782       -0.00010
C         -1.32325       -2.68832       -0.00010
C          1.13593       -2.58005       -0.00010
C         -2.68522        2.13808       -0.00010
C         -3.85592       -0.44247       -0.00010
C         -0.05056       -3.31027       -0.00010
C          3.58922       -0.69769       -0.00010
C          3.10695        2.05385       -0.00010
C         -4.07840        1.98491       -0.00010
C         -4.65699        0.70841       -0.00010
C          4.65119        0.19511       -0.00010
C          4.40918        1.58310       -0.00010
H          0.52341        2.78117       -0.00010
H         -2.22868       -3.30111       -0.00010
H          2.08680       -3.11716       -0.00010
H         -2.24074        3.13716       -0.00010
H         -4.31752       -1.43368       -0.00010
H          0.00213       -4.40242       -0.00010
H          3.79589       -1.77009       -0.00010
H          2.91341        3.13053       -0.00010
H         -4.72049        2.86970       -0.00010
H         -5.74574        0.60936       -0.00010
H          5.67755       -0.18123       -0.00010
H          5.24671        2.28551       -0.00010
