24
BENZOPHENONE.gamout	Energy:    -575.8644068
O          2.33773        1.53286        1.48437
C          3.09547        1.76938        2.41097
C          2.64979        1.50581        3.82403
C          4.46617        2.32330        2.12858
C          1.26833        1.53921        4.08819
C          3.53311        1.15018        4.85852
C          5.15618        3.16845        3.01556
C          5.03610        2.04118        0.87341
C          0.78339        1.25722        5.36442
C          3.04383        0.84841        6.13298
C          6.39559        3.70751        2.65775
C          6.28079        2.56357        0.52578
C          1.67131        0.91093        6.39068
C          6.96399        3.39900        1.41841
H          0.58969        1.78848        3.26972
H          4.60510        1.08170        4.66323
H          4.71254        3.42982        3.97833
H          4.47742        1.40708        0.18180
H         -0.29111        1.30011        5.56167
H          3.73817        0.55999        6.92663
H          6.91742        4.37429        3.34933
H          6.72044        2.32652       -0.44681
H          1.29142        0.68280        7.39030
H          7.93734        3.81467        1.14356
