36
BENZYLTRIETHYLAMMONIUM+1.gamout	Energy:    -562.3635212
N          1.43899       -0.10819        0.02127
C          0.32397       -0.04684       -1.04527
C          1.24698       -1.30672        0.94297
C          1.37599        1.15821        0.86467
C          2.77724       -0.23149       -0.69334
C         -1.09426        0.05513       -0.54731
C          1.39676       -2.68966        0.32255
C          2.49393        1.37516        1.87595
C          3.22708        0.96057       -1.52733
C         -1.86619       -1.09970       -0.34406
C         -1.69570        1.30962       -0.35210
C         -3.19309       -1.00533        0.07658
C         -3.02212        1.40543        0.06889
C         -3.77160        0.24756        0.29054
H          0.46050       -0.94380       -1.66005
H          0.57180        0.82223       -1.66348
H          1.97969       -1.18114        1.74826
H          0.24833       -1.17853        1.37898
H          1.34341        1.99020        0.15036
H          0.40202        1.12738        1.36787
H          3.51511       -0.45507        0.08829
H          2.69539       -1.12146       -1.32845
H          1.14419       -3.42409        1.10266
H          0.71427       -2.87124       -0.52026
H          2.42319       -2.91079       -0.00254
H          2.30445        2.34570        2.35988
H          2.51751        0.62468        2.67979
H          3.49250        1.43459        1.41949
H          4.20828        0.70447       -1.95605
H          2.56193        1.18105       -2.37532
H          3.36505        1.87839       -0.93810
H         -1.43866       -2.08593       -0.53621
H         -1.13171        2.22475       -0.54784
H         -3.77918       -1.91391        0.22641
H         -3.47423        2.38818        0.21474
H         -4.81133        0.32319        0.61495
