15
BENZYL_DICHLORIDE.gamout	Energy:   -1189.9882256
Cl         8.28897        3.43786        0.43473
C          7.24402        3.00708       -0.97771
Cl         8.27479        2.68586       -2.42933
C          6.34170        1.84478       -0.66824
C          6.86617        0.58425       -0.33930
C          4.95248        2.02282       -0.70919
C          6.00969       -0.47832       -0.05656
C          4.09400        0.95487       -0.42514
C          4.62084       -0.29627       -0.09865
H          6.67056        3.90983       -1.21169
H          7.94922        0.44460       -0.30734
H          4.53745        3.00213       -0.96486
H          6.42514       -1.45671        0.19866
H          3.01174        1.10422       -0.45987
H          3.95218       -1.13209        0.12358
