28
BENZYL_BENZOATE.gamout	Energy:    -690.2712540
C          8.17785        3.08554       -1.44768
C          7.13223        2.97189       -2.37865
C          8.24413        2.19813       -0.36152
C          9.24551        4.12407       -1.56501
C          6.16365        1.97828       -2.21970
C          7.27351        1.20840       -0.20530
C          6.23233        1.09721       -1.13450
C         10.01990        6.00080       -2.79401
O          9.04461        4.95900       -2.60437
C          9.51893        6.93899       -3.86079
O         10.19057        4.22004       -0.81456
C          8.56389        8.70401       -5.83300
C          9.75664        8.00505       -6.03537
C          7.84589        8.52214       -4.64499
C         10.22854        7.12527       -5.05442
C          8.32184        7.64853       -3.66630
H          7.08681        3.66423       -3.22038
H          9.06727        2.30326        0.34797
H          5.35057        1.89019       -2.94498
H          7.32704        0.52003        0.64217
H          5.47250        0.32044       -1.01226
H         10.16920        6.51747       -1.83157
H         10.98574        5.54800       -3.06948
H          8.19251        9.39068       -6.59854
H         10.32241        8.14256       -6.96077
H          6.91151        9.06598       -4.48088
H         11.15999        6.57581       -5.22045
H          7.75863        7.50887       -2.73926
