15
BENZYL_CHLORIDE.gamout	Energy:    -730.5901534
C          1.37833       -0.00263       -0.93794
C         -0.05402       -0.00132       -0.48861
C         -0.73064        1.20797       -0.26254
C         -2.05620        1.21048        0.17766
C         -2.72336        0.00122        0.40019
C         -2.05824       -1.20928        0.17850
C         -0.73254       -1.20929       -0.26140
Cl         2.53752        0.00118        0.47481
H          1.62127       -0.89900       -1.52317
H          1.62137        0.89054       -1.52804
H         -0.21043        2.15576       -0.43013
H         -2.57167        2.15960        0.34768
H         -3.76111        0.00223        0.74416
H         -2.57526       -2.15743        0.34921
H         -0.21390       -2.15807       -0.42832
