16
BENZYL_ALCOHOL.gamout	Energy:    -346.3078673
C          1.95290       -0.00141       -0.56181
C          0.46304       -0.00079       -0.31860
C         -0.23699        1.20612       -0.17295
C         -1.60787        1.20983        0.09948
C         -2.29752        0.00067        0.23539
C         -1.60918       -1.20922        0.09941
C         -0.23811       -1.20696       -0.17218
O          2.62195        0.00154        0.68861
H          2.22320       -0.89412       -1.16214
H          2.22327        0.88854       -1.16619
H          0.30010        2.15400       -0.27490
H         -2.14080        2.15884        0.20573
H         -3.37091        0.00124        0.44460
H         -2.14312       -2.15766        0.20568
H          0.29796       -2.15542       -0.27412
H          3.57315        0.00127        0.51801
