17
BENZYLAMINE.gamout	Energy:    -326.4621479
N          7.52953        4.01052       -0.14940
C          7.24170        3.03080       -1.20072
C          6.30117        1.90315       -0.80750
C          6.79783        0.71403       -0.24863
C          4.90975        2.04415       -0.94019
C          5.93326       -0.30094        0.17182
C          4.54990       -0.14362        0.03787
C          4.04016        1.03276       -0.52130
H          6.65615        4.42805        0.17791
H          7.92001        3.53374        0.66566
H          8.20076        2.60331       -1.53983
H          6.82258        3.57339       -2.06537
H          7.87996        0.57982       -0.14752
H          4.50208        2.95828       -1.38460
H          6.34086       -1.22101        0.60012
H          3.87195       -0.93750        0.36278
H          2.96017        1.16036       -0.63752
