13
BENZONITRILE.gamout	Energy:    -324.0572567
N         -1.82631       -3.16342       -0.00026
C         -0.52693       -0.91244        0.00041
C          0.88148       -0.91073        0.00009
C         -1.22956        0.30796        0.00009
C          1.57355        0.30054       -0.00008
C         -0.52654        1.51291       -0.00008
C          0.87285        1.51165       -0.00012
C         -1.24571       -2.15766        0.00004
H          1.42187       -1.85962        0.00003
H         -2.32157        0.30149        0.00003
H          2.66642        0.29905       -0.00023
H         -1.07407        2.45867       -0.00023
H          1.41923        2.45839       -0.00028
