30
BENZANTHRACENE.gamout	Energy:    -692.2444528
C          4.20357        1.52190        5.08614
C          4.62629        1.42469        3.68427
C          5.09832        1.05423        6.11995
C          2.96986        2.04834        5.47318
C          5.90559        0.87065        3.37919
C          3.81822        1.85872        2.60808
C          4.71484        1.13931        7.46088
C          6.37973        0.50372        5.74981
C          2.57389        2.13764        6.82400
C          6.76269        0.41612        4.44865
C          6.32131        0.77290        2.03056
C          4.24524        1.75461        1.29120
C          3.47046        1.67062        7.85015
C          1.30893        2.67761        7.21183
C          5.50714        1.20730        0.99612
C          3.06301        1.76473        9.21668
C          0.94964        2.75277        8.53754
C          1.83703        2.29082        9.55176
H          2.26765        2.41093        4.72032
H          2.83457        2.28751        2.80513
H          5.40316        0.78165        8.23268
H          7.04054        0.15602        6.54876
H          7.73709       -0.00419        4.18423
H          7.30473        0.34523        1.81508
H          3.59638        2.09964        0.48185
H          0.62889        3.03145        6.43152
H          5.84189        1.12590       -0.04130
H          3.74618        1.40977        9.99367
H         -0.02112        3.16833        8.82060
H          1.53618        2.35762       10.60072
