15
BENZOTRICHLORIDE.gamout	Energy:   -1649.3779328
C          6.32414        1.83485       -0.75584
C          6.84204        0.59009       -0.40581
C          4.94103        2.05405       -0.73978
C          4.08504        1.01613       -0.37225
C          4.60055       -0.23661       -0.01997
C          5.98259       -0.45937       -0.03099
C          6.59602       -1.80779        0.31861
Cl         7.85526       -1.60806        1.60466
Cl         7.39962       -2.50652       -1.14877
Cl         5.39787       -3.00764        0.91365
H          7.00507        2.64032       -1.04258
H          7.92103        0.42568       -0.42064
H          4.53633        3.03188       -1.01339
H          3.00356        1.17350       -0.35592
H          3.92209       -1.04030        0.26466
