22
BENZYL_ETHYL_ETHER.gamout	Energy:    -424.8192271
C          6.34433        1.88312       -0.15514
C          6.89729        0.63350       -0.45326
C          4.95897        2.03403       -0.04527
C          4.10695        0.93682       -0.23819
C          2.61046        1.08012       -0.07313
C          4.66808       -0.31076       -0.54768
C          6.05393       -0.46467       -0.64924
O          2.20042        2.38854       -0.37722
C          0.82775        2.62890       -0.16399
C          0.51441        4.07111       -0.51614
H          6.99664        2.74849       -0.00738
H          7.98108        0.51678       -0.53853
H          4.52190        3.00912        0.17773
H          2.08872        0.33811       -0.71431
H          2.33052        0.82645        0.97457
H          4.01424       -1.17294       -0.71387
H          6.47537       -1.44428       -0.89122
H          0.21490        1.93704       -0.78091
H          0.55955        2.42060        0.89453
H         -0.55448        4.28326       -0.35492
H          1.10370        4.75969        0.10970
H          0.75593        4.27608       -1.57082
