27
BENZYL_NICOTINATE.gamout	Energy:    -706.2901292
O         -0.02694        0.53896       -0.07827
O          1.26941        2.36332       -0.31833
N          3.19296       -1.97786        0.37114
C         -2.42780        0.49979       -0.12778
C         -1.19972        1.36630       -0.21995
C         -3.32841        0.43103       -1.19923
C         -2.69734       -0.24342        1.03352
C          2.31427        0.23934        0.02015
C         -4.48153       -0.35655       -1.11445
C         -3.84332       -1.03681        1.11752
C          1.15840        1.17085       -0.14335
C         -4.74000       -1.09350        0.04385
C          3.61326        0.76406       -0.03298
C          2.16269       -1.14308        0.22375
C          4.69118       -0.10458        0.11904
C          4.42554       -1.46516        0.31940
H         -1.17549        2.13556        0.57001
H         -1.15190        1.89316       -1.18534
H         -3.12593        1.00136       -2.11063
H         -2.00040       -0.20197        1.87533
H         -5.17525       -0.39756       -1.95845
H         -4.04143       -1.61193        2.02611
H         -5.63875       -1.71257        0.11129
H          3.74754        1.83654       -0.19212
H          1.15932       -1.57846        0.26450
H          5.72113        0.25855        0.08395
H          5.25412       -2.17362        0.44307
