14
BENZOATE-1.gamout	Energy:    -419.7177145
O          2.39130       -1.13346        0.00308
O          2.39031        1.13329       -0.00041
C          0.30203        0.00027       -0.00017
C         -0.41447        1.20451        0.00085
C         -0.41395       -1.20441       -0.00341
C         -1.81260        1.20924       -0.00157
C         -1.81209       -1.20919        0.00237
C         -2.51833       -0.00014        0.00402
C          1.86227       -0.00045        0.00085
H          0.17717        2.12372        0.00268
H          0.17734       -2.12378       -0.01229
H         -2.35989        2.15835       -0.01064
H         -2.35951       -2.15824        0.00445
H         -3.61359        0.00000        0.00973
