16
BENZYL_MERCAPTAN.gamout	Energy:    -669.2051795
S          0.50313        1.31645       -3.50525
C         -0.26643        0.06481       -1.07294
C          0.80461        0.11401       -2.13622
C         -0.59992        1.20575       -0.32224
C         -0.94046       -1.13554       -0.80281
C         -1.57384        1.14279        0.67506
C         -1.91985       -1.20061        0.19503
C         -2.23795       -0.06202        0.93844
H          1.76310        0.45390       -1.71106
H          0.97637       -0.88535       -2.56220
H         -0.09706        2.15269       -0.53719
H         -0.69362       -2.03286       -1.37875
H         -1.81821        2.03888        1.25233
H         -2.43425       -2.14564        0.39006
H         -3.00166       -0.11007        1.71933
H         -0.68974        0.80998       -3.89812
