12
BENZENE.gamout	Energy:    -231.9304572
C          3.29295        3.39572        0.23500
C          1.90149        3.54083        0.22414
C          3.86398        2.12040        0.16126
C          1.08083        2.41074        0.13954
C          3.04330        0.99030        0.07668
C          1.65186        1.13542        0.06580
H          3.93429        4.27902        0.30113
H          1.45512        4.53752        0.28179
H          4.95158        2.00691        0.16989
H         -0.00678        2.52417        0.13107
H          3.48979       -0.00636        0.01934
H          1.01053        0.25212       -0.00043
