14
BENZOYL_BROMIDE.gamout	Energy:   -2918.2655581
C          6.30037        1.86868       -0.59689
C          6.83160        0.58619       -0.35065
C          4.92073        2.05931       -0.63179
C          4.05909        0.97570       -0.42190
C          4.58158       -0.29840       -0.17673
C          5.96281       -0.49653       -0.14026
C          8.31588        0.48399       -0.33530
Br         9.05706       -1.34622        0.01530
O          9.08013        1.37502       -0.51089
H          6.98713        2.70151       -0.75875
H          4.51419        3.05547       -0.82321
H          2.97653        1.12550       -0.44954
H          3.90992       -1.14445       -0.01270
H          6.37238       -1.48889        0.05084
