15
BENZOTRIFLUORIDE.gamout	Energy:    -568.5965520
F          6.65563        3.92716       -1.75747
C          7.24085        3.00931       -0.96766
F          8.37493        2.61651       -1.57476
F          7.60357        3.64238        0.16547
C          6.32218        1.84479       -0.68645
C          6.85912        0.57403       -0.44621
C          4.93695        2.04532       -0.63267
C          6.00927       -0.49387       -0.14800
C          4.62594       -0.29559       -0.09232
C          4.09132        0.97383       -0.33588
H          7.93883        0.42027       -0.50043
H          4.52344        3.03574       -0.83375
H          6.42952       -1.48570        0.03712
H          3.96244       -1.13330        0.13820
H          3.01026        1.13040       -0.29826
