19
BETAINE.gamout	Energy:    -401.7793008
O          2.53946       -0.57657        0.21944
O          1.41103        0.85059       -1.14374
N         -1.10582        0.03340       -0.05258
C          0.22488       -0.54279        0.45304
C         -1.24589       -0.27088       -1.51861
C         -2.23933       -0.57756        0.70024
C         -1.10494        1.52362        0.14442
C          1.55412       -0.01666       -0.25178
H          0.27504       -0.31708        1.52781
H          0.16170       -1.63285        0.32621
H         -1.26868       -1.36152       -1.64445
H         -2.18321        0.16925       -1.88591
H         -0.36080        0.15965       -2.00785
H         -2.11072       -0.37578        1.77156
H         -3.18844       -0.14580        0.35136
H         -2.24071       -1.66229        0.53134
H         -1.02842        1.73306        1.21981
H         -0.22154        1.90260       -0.38954
H         -2.04211        1.93488       -0.25489
