20
BETAINE+1.gamout	Energy:    -402.1920316
O          2.50342       -0.51676        0.50791
O          1.51914        0.53797       -1.22300
N         -1.10364       -0.01362       -0.08872
C          0.18349       -0.44609        0.56192
C         -1.26142       -0.64632       -1.44761
C         -2.23559       -0.46935        0.78962
C         -1.16800        1.48618       -0.21769
C          1.46570       -0.06633       -0.18357
H          0.22099       -0.01377        1.57233
H          0.15674       -1.53925        0.67877
H         -1.21091       -1.73655       -1.33517
H         -2.24096       -0.35898       -1.84669
H         -0.46039       -0.28593       -2.10015
H         -2.13908        0.00110        1.77548
H         -3.18180       -0.16953        0.32369
H         -2.19830       -1.56088        0.88856
H         -1.05728        1.93015        0.77949
H         -0.36302        1.81765       -0.88052
H         -2.14581        1.75137       -0.63609
H          3.33292       -0.28566        0.04696
