24
BETA_D-FRUCTOPYRANOSE.gamout	Energy:    -686.3108525
C         -2.73181        2.23743       -1.39207
O         -2.78239        0.81449       -1.39255
C         -2.18881        2.78859       -2.70600
C         -1.83695        2.70931       -0.23922
H         -3.76304        2.59132       -1.22395
O         -0.84360        2.35793       -2.88975
H         -2.25211        3.88956       -2.72165
H         -2.75741        2.38605       -3.55735
C         -0.37246        2.35695       -0.52639
O         -2.22595        2.15101        1.00072
H         -1.91613        3.80462       -0.13758
H         -0.27554        1.25518       -0.50214
O          0.48760        2.96202        0.42339
C          0.07323        2.82042       -1.92582
C          1.44805        2.25342       -2.32478
O          0.11837        4.22882       -1.96984
H         -2.02351        0.50082       -1.90967
H          0.42797        4.51363       -1.09441
O          1.56170        0.85817       -2.14380
H          2.21835        2.80973       -1.76286
H          1.57844        2.47423       -3.39573
H          1.88755        0.69682       -1.24971
H         -2.44311        1.22293        0.80816
H          0.07537        2.82942        1.29150
