96
BETACAROTENE.gamout	Energy:   -1555.6762181
C          1.18711       -0.15879       -0.08705
C          0.38692       -1.16406        0.35806
C          2.65956       -0.15159       -0.11169
C         -1.07426       -1.21204        0.38290
C          3.31726        1.17046        0.35473
C          3.39244       -1.22787       -0.51746
C         -1.86075       -0.29140       -0.26375
C         -1.70165       -2.34808        1.16544
C          3.05375        1.37574        1.86140
C          2.73278        2.38507       -0.39952
C          4.83608        1.16165        0.08790
C          2.82148       -2.48303       -1.13356
C          4.90098       -1.26146       -0.43910
C         -3.29408       -0.26486       -0.27415
C          5.49574       -0.16512        0.43297
C         -4.04158        0.68043       -0.92782
C         -5.48551        0.79069       -1.01863
C         -6.33615       -0.17687       -0.53179
C         -6.03381        2.03017       -1.69473
C         -7.76468       -0.16087       -0.57027
C         -8.55725       -1.17720       -0.08849
C         -9.98708       -1.17369       -0.12579
C        -10.84999       -2.15337        0.31106
C        -12.29569       -2.02690        0.22411
C        -10.37054       -3.45180        0.91438
C        -13.04398       -0.95516       -0.18082
C        -14.48006       -0.96034       -0.22138
C        -15.31829        0.05871       -0.59373
C        -16.77697       -0.06866       -0.56245
C        -14.82020        1.39920       -1.07519
C        -17.51928       -1.05770       -0.00249
C        -18.98725       -1.17394        0.00092
C        -19.60797       -1.61041        1.34973
C        -19.74534       -0.92187       -1.10348
C        -19.41726       -0.48819        2.39012
C        -18.92958       -2.88480        1.89733
C        -21.10853       -1.92728        1.19730
C        -19.19881       -0.63465       -2.48159
C        -21.25479       -0.95242       -1.07806
C        -21.84557       -0.92417        0.32338
H          0.70380        0.76850       -0.40997
H          0.87616       -2.04596        0.78371
H         -1.36117        0.49570       -0.83863
H         -0.93556       -3.01400        1.58703
H         -2.36777       -2.96435        0.53829
H         -2.30985       -1.97717        2.00859
H          1.97596        1.35353        2.07995
H          3.44900        2.34990        2.19140
H          3.52910        0.59176        2.47023
H          1.69524        2.60686       -0.11000
H          2.76275        2.23758       -1.49069
H          3.32687        3.28367       -0.16537
H          5.29752        1.98989        0.64880
H          5.01311        1.37613       -0.98125
H          1.77882       -2.37382       -1.45519
H          2.87540       -3.33669       -0.43303
H          3.42933       -2.77140       -2.00945
H          5.30871       -1.19655       -1.46844
H          5.21330       -2.25715       -0.07513
H         -3.81296       -1.05061        0.28394
H          5.33805       -0.40568        1.49896
H          6.58517       -0.10666        0.28457
H         -3.48846        1.46949       -1.45100
H         -5.88976       -1.06619       -0.07521
H         -5.22288        2.70720       -1.99689
H         -6.70416        2.59810       -1.02780
H         -6.61472        1.78316       -2.59970
H         -8.26357        0.70929       -1.01310
H         -8.04874       -2.04442        0.34792
H        -10.43441       -0.27681       -0.56712
H        -12.85005       -2.91972        0.53989
H         -9.27856       -3.53284        0.95659
H        -10.74798       -4.31258        0.33445
H        -10.75676       -3.57287        1.94193
H        -12.52874       -0.03891       -0.48516
H        -14.95063       -1.90239        0.08078
H        -17.31291        0.76473       -1.02903
H        -13.72733        1.45992       -1.13192
H        -15.16879        2.21287       -0.41395
H        -15.22212        1.62242       -2.07959
H        -16.98693       -1.83562        0.55354
H        -18.35444       -0.22561        2.49842
H        -19.79083       -0.80924        3.37580
H        -19.95384        0.42909        2.10436
H        -17.90098       -2.70625        2.24331
H        -18.90449       -3.68794        1.14378
H        -19.49432       -3.25977        2.76669
H        -21.55943       -1.98313        2.20061
H        -21.21758       -2.93245        0.75282
H        -18.13914       -0.89498       -2.59048
H        -19.31725        0.43177       -2.74795
H        -19.77625       -1.20199       -3.23287
H        -21.59665       -1.85780       -1.61970
H        -21.63647       -0.10536       -1.67594
H        -21.75814        0.09151        0.74698
H        -22.92129       -1.15609        0.29170
