24
BETA-D-FRUCTOPYRANOSE.gamout	Energy:    -686.3087351
O         -0.78955        1.03532       -0.72493
C         -2.07513        1.07837       -0.13684
C         -2.45464       -0.22851        0.56596
H         -2.78140        1.28751       -0.95789
H         -2.14737        1.90746        0.59123
C         -1.33172       -0.66370        1.51219
C          0.01625       -0.64077        0.78007
C          0.26496        0.76208        0.19887
C          1.57548        0.83346       -0.59387
O         -2.62423       -1.32084       -0.33396
H         -3.38218       -0.06654        1.15147
H         -3.34380       -1.12328       -0.94637
O         -1.56993       -1.94712        2.05869
H         -1.26627        0.04232        2.35454
H         -1.92390       -2.47928        1.32705
O          1.06077       -1.01720        1.64269
H         -0.05723       -1.32678       -0.08829
H          0.72013       -1.76446        2.15860
O          0.29103        1.69479        1.23286
H          0.79344        2.44888        0.87366
O          1.92023        2.20519       -0.73752
H          2.33951        0.27942       -0.02519
H          1.42545        0.35088       -1.57535
H          2.88065        2.28745       -0.73743
