22
BHEMA+1.gamout	Energy:    -403.3527896
C         -0.10606        1.48286        0.11736
C         -1.39098        2.11915       -0.41883
O         -2.33137        1.09004       -0.33802
H         -1.22448        2.46995       -1.46246
H         -1.67960        3.00240        0.18377
H         -3.21482        1.42394       -0.54733
N          1.13740        2.30747       -0.10438
H          0.03949        0.52647       -0.40219
H         -0.18391        1.28139        1.19540
C          2.38109        1.50529        0.18731
C          3.68309        2.17242       -0.26243
H          2.28540        0.55198       -0.34929
H          2.39621        1.29365        1.26614
O          4.63505        1.15695       -0.15075
H          3.92209        3.04669        0.37401
H          3.56934        2.54380       -1.30613
H          5.52405        1.51124       -0.29274
C          1.10415        3.59986        0.65144
H          0.20932        4.16499        0.36971
H          1.99699        4.18623        0.40996
H          1.08204        3.37471        1.72575
H          1.16330        2.54074       -1.10700
