34
BICYCLOHEXYL.gamout	Energy:    -469.8752323
C          5.20419        1.70477        2.32860
C          6.14017        1.75918        3.55375
C          5.96177        2.24245        1.09528
C          3.84701        2.42880        2.57177
C          7.48607        1.06391        3.31881
C          7.30880        1.54772        0.86166
C          2.91141        2.37474        1.34717
C          3.08938        1.89031        3.80391
C          8.20886        1.62383        2.09428
C          1.56547        3.06962        1.58216
C          1.74229        2.58452        4.03821
C          0.84262        2.50862        2.80577
H          4.97289        0.63661        2.13550
H          6.32060        2.81999        3.81553
H          5.65575        1.30307        4.42946
H          5.34618        2.13737        0.18991
H          6.13324        3.32795        1.23137
H          4.07837        3.49685        2.76550
H          8.11605        1.16125        4.21812
H          7.31577       -0.01974        3.17498
H          7.13231        0.48597        0.60534
H          7.80975        1.99672       -0.01127
H          3.39549        2.83136        0.47167
H          2.73082        1.31406        1.08484
H          2.91782        0.80492        3.66700
H          3.70444        1.99487        4.70945
H          8.48443        2.67878        2.28196
H          9.15219        1.08050        1.92151
H          1.73525        4.15330        1.72649
H          0.93611        2.97225        0.68270
H          1.24182        2.13447        4.91072
H          1.91824        3.64617        4.29543
H         -0.10109        3.05125        2.97860
H          0.56779        1.45360        2.61730
