22
BIPHENYL.gamout	Energy:    -462.6732443
C          2.45771        0.42054        3.86564
C          3.70576        0.58768        3.23033
C          1.32642        0.31914        3.02914
C          2.33976        0.35387        5.35573
C          3.81836        0.65015        1.84061
C          1.43461        0.38112        1.63907
C          1.09152        0.18922        5.99133
C          3.47148        0.45260        6.19195
C          2.68265        0.54736        1.03280
C          0.97918        0.12662        7.38108
C          3.36355        0.39056        7.58203
C          2.11532        0.22681        8.18861
H          4.61612        0.67196        3.82480
H          0.33422        0.18876        3.46234
H          4.80435        0.78050        1.38629
H          0.53360        0.29836        1.02508
H          0.18078        0.10711        5.39716
H          4.46387        0.58075        5.75848
H          2.76909        0.59605       -0.05576
H         -0.00697       -0.00166        7.83562
H          4.26491        0.47107        8.19580
H          2.02911        0.17791        9.27718
