26
BMA+1.gamout	Energy:    -331.6217982
N         -1.42074        1.16598        0.07407
C         -0.47414        2.10849       -0.66723
C          0.72869        2.62683        0.11218
H         -1.10668        2.94121       -1.00617
H         -0.14624        1.55587       -1.55949
C          1.52916        3.62939       -0.73677
H          0.41024        3.12560        1.04412
H          1.39125        1.79410        0.39988
C          2.77476        4.14619       -0.01732
H          0.87652        4.47666       -1.01163
H          1.82354        3.14763       -1.68608
H          2.52004        4.63159        0.93947
H          3.29986        4.88848       -0.63623
H          3.48493        3.32997        0.19652
C         -2.12982        1.88851        1.17963
H         -2.69943        2.72218        0.75177
H         -1.39876        2.26642        1.90204
H         -2.81272        1.18977        1.67724
C         -2.44299        0.66369       -0.90281
H         -1.93818        0.08224       -1.68384
H         -2.96045        1.51888       -1.35302
H         -3.16234        0.02959       -0.37165
C         -0.68142       -0.00624        0.64155
H          0.00191        0.33817        1.42402
H         -0.11607       -0.49639       -0.16083
H         -1.40772       -0.70912        1.06689
