31
BMMOR+1.gamout	Energy:    -484.0417879
O         -3.65770       -0.05235       -0.58292
C         -3.60414       -1.04833       -1.57554
C         -2.73363        0.99108       -0.81511
C         -2.29145       -1.84509       -1.46967
H         -3.72387       -0.61221       -2.58618
H         -4.45019       -1.73026       -1.41158
C         -1.42736        0.46574       -1.43861
H         -2.55248        1.47346        0.15516
H         -3.14926        1.75626       -1.49683
N         -1.12499       -0.96060       -1.02414
H         -2.02673       -2.29231       -2.43732
H         -2.37085       -2.65444       -0.73426
H         -0.56795        1.08947       -1.15829
H         -1.48379        0.44889       -2.53524
C          0.12888       -1.39157       -1.71777
H          0.30999       -2.45361       -1.52158
H          0.96797       -0.79359       -1.34265
H          0.01036       -1.23137       -2.79605
C         -0.95524       -1.02273        0.49962
C         -0.42805       -2.33930        1.09438
H         -1.95158       -0.79439        0.89130
H         -0.28714       -0.18694        0.75219
C          1.07985       -2.40438        1.39244
H         -0.73309       -3.20433        0.47828
H         -0.97008       -2.47616        2.04481
C          1.48884       -3.72269        2.04982
H          1.34539       -1.56221        2.05630
H          1.66838       -2.25878        0.46993
H          1.27573       -4.58476        1.39614
H          0.95196       -3.88456        2.99954
H          2.56625       -3.73326        2.27041
