33
BMPIP+1.gamout	Energy:    -448.2029024
C         -3.48878        0.93696        1.18911
C         -2.90305        1.38183       -0.15207
C         -1.42795        1.75390       -0.03392
H         -3.42418        2.27415       -0.53275
H         -3.04848        0.60284       -0.91932
C         -2.64638       -0.19247        1.78643
H         -4.53117        0.61111        1.06295
H         -3.51033        1.79212        1.88762
C         -1.17346        0.19377        1.87559
H         -2.77459       -1.12417        1.21055
H         -2.97361       -0.42935        2.81079
N         -0.56308        0.65011        0.55190
H         -0.54972       -0.63465        2.23628
H         -1.04352        1.04134        2.56359
H         -1.30090        2.61556        0.63798
H         -1.00080        2.01549       -1.00876
C         -0.46896       -0.50809       -0.38911
H         -1.45717       -0.95223       -0.53366
H          0.20910       -1.25643        0.03869
H         -0.08168       -0.16407       -1.35352
C          0.83796        1.17989        0.85441
C          1.64794        1.73728       -0.31558
H          0.69943        1.95348        1.62270
H          1.37017        0.33983        1.32530
C          3.03926        2.18742        0.16283
H          1.12967        2.59817       -0.77002
H          1.77157        0.97964       -1.10691
C          3.88579        2.78600       -0.96095
H          3.56650        1.32478        0.60765
H          2.92352        2.92764        0.97445
H          4.05014        2.06203       -1.77585
H          4.87294        3.08842       -0.58239
H          3.40931        3.68091       -1.39350
