13
BOB-1.gamout	Energy:    -778.4528678
B          0.50905       -0.97574        0.21826
O         -0.58460       -0.05446        0.56819
O          1.69282       -0.45731        0.92305
O          0.20164       -2.35988        0.61853
O          0.72576       -1.03510       -1.23741
C          0.57398       -2.27947       -1.67411
C          0.22640       -3.16047       -0.44031
C         -0.13893        0.89883        1.37717
C          1.37445        0.63175        1.61180
O         -0.78148        1.80155        1.84268
O          2.11382        1.29176        2.29177
O          0.02021       -4.34460       -0.44970
O          0.68568       -2.65926       -2.80923
