7
BORIC_ACID.gamout	Energy:    -252.1781898
O          0.85026        2.40387        0.28228
B          0.77972        1.78969       -0.93941
O          0.41601        0.47708       -0.94507
O          1.04858        2.39963       -2.14549
H          1.12871        3.32473        0.26391
H          0.37825        0.12472       -1.84223
H          1.27872        3.33352       -2.10118
