24
BPY+1.gamout	Energy:    -405.3532033
N          0.06728        0.58515        0.60835
C          0.60997        1.57923        1.35321
C          0.29711        2.90634        1.11675
C         -0.59638        3.22484        0.08845
C         -0.79593        0.87545       -0.38812
C         -1.14525        2.19042       -0.66932
H          1.29992        1.27282        2.14097
H          0.75358        3.67873        1.73698
H         -0.85871        4.26494       -0.11723
H         -1.84516        2.38820       -1.48221
H         -1.19749        0.03673       -0.95169
C          0.46968       -0.82531        0.94067
C         -0.15846       -1.92405        0.09467
H          0.21899       -0.96754        2.00353
H          1.56720       -0.85259        0.85226
C          0.35734       -3.30564        0.52776
H          0.08100       -1.77064       -0.97239
H         -1.25825       -1.90174        0.19338
C         -0.25284       -4.44440       -0.28873
H         -1.34919       -4.47932       -0.17828
H          0.14417       -5.41470        0.04294
H         -0.02382       -4.34100       -1.36210
H          0.13768       -3.45624        1.59964
H          1.45748       -3.32648        0.43300
