30
BQUIN+1.gamout	Energy:    -558.7982599
N         -2.14285        1.10155       -0.00256
C         -2.78462        2.45417       -0.01673
C         -4.30857        2.49355        0.00018
H         -2.41007        2.96657       -0.91595
H         -2.39159        2.99296        0.85906
C         -4.81135        3.94595       -0.02001
H         -4.69794        1.99295        0.90396
H         -4.71953        1.96162       -0.87565
C         -6.33639        4.04208        0.00248
H         -4.42007        4.45347       -0.91981
H         -4.39191        4.48835        0.84600
H         -6.78641        3.54151       -0.87058
H         -6.66037        5.09308       -0.01540
H         -6.75733        3.58084        0.91115
C         -2.89166       -0.00542        0.02136
C         -0.75124        1.01764       -0.01011
C         -0.14046       -0.27790        0.00011
C          0.06805        2.16763       -0.02317
C          1.27591       -0.37709       -0.00349
C         -0.96395       -1.42585        0.02599
C         -2.33680       -1.28825        0.03942
H         -0.50414       -2.41677        0.04016
H         -3.00259       -2.15061        0.06478
H         -3.97025        0.13602        0.02726
C          1.44478        2.03048       -0.01702
H         -0.36099        3.16640       -0.03416
C          2.05686        0.75660       -0.00474
H          1.73022       -1.36974       -0.00258
H          2.06876        2.92706       -0.02277
H          3.14510        0.67805        0.00583
