5
BROMOTRIFLUOROMETHANE.gamout	Energy:   -2910.9730046
Br        -1.07710       -0.00000        0.00014
C          0.87251        0.00000       -0.00035
F          1.32556        0.00000        1.24534
F          1.32655       -1.07857       -0.62284
F          1.32655        1.07857       -0.62284
