6
BROMOTRIFLUOROETHYLENE.gamout	Energy:   -2948.9716857
C          1.10125        0.00718        0.04468
C          0.45252        0.84080        0.86461
F          0.48897       -0.82267       -0.77122
F          2.40935       -0.07492       -0.03606
F         -0.87608        0.86381        0.88737
Br         1.31911        2.02663        2.03092
