8
BROMOCHLOROACETIC_ACID.gamout	Energy:   -3261.3150399
Br         1.18377        1.79148       -0.56466
Cl         1.50533       -1.17088        0.35841
O         -1.21409        0.14754        0.87046
O         -1.72499       -0.45912       -1.23528
C          0.57505       -0.07324       -0.69600
C         -0.91888       -0.15207       -0.39658
H          0.73328       -0.37298       -1.73546
H         -2.17977        0.07740        0.96710
