8
BROMOETHANE.gamout	Energy:   -2652.8387819
C         -0.10551       -0.25610       -0.00361
C          1.40465       -0.11664       -0.00358
Br         1.97945        1.77476       -0.00360
H         -0.37123       -1.32777       -0.00299
H         -0.55170        0.20975       -0.89526
H         -0.55180        0.21078        0.88745
H          1.86526       -0.55732       -0.89741
H          1.86523       -0.55732        0.89027
