5
BROMOCHLORODIFLUOROMETHANE.gamout	Energy:   -3271.2309416
Br        -0.00534       19.96948       -0.00001
C          1.95448       20.00566        0.00018
Cl         2.57577       21.67195       -0.00019
F          2.39788       19.36711        1.07724
F          2.39811       19.36657       -1.07647
