5
BROMOTRICHLOROMETHANE.gamout	Energy:   -3991.7554921
C          0.98814        0.84372       -0.00922
Cl         0.11888        2.40167       -0.00321
Cl         2.74798        1.13663       -0.00288
Br         0.49476       -0.18250        1.60183
Cl         0.53871       -0.09060       -1.46095
