13
BUT-1.gamout	Energy:    -306.7318378
O         -3.49505        2.57163        0.91462
C         -3.44657        1.32410        0.80153
O         -4.30984        0.46559        1.07661
C         -2.10600        0.75730        0.17815
C         -0.87118        1.59372        0.50209
H         -2.24853        0.73476       -0.92244
H         -1.98964       -0.29530        0.49293
C          0.38026        1.24359       -0.30746
H         -0.64254        1.50705        1.58214
H         -1.16195        2.64624        0.34828
H          0.68897        0.19278       -0.15375
H          1.24351        1.88150       -0.04015
H          0.20154        1.36763       -1.39135
