31
BUTABARBITAL.gamout	Energy:    -724.9943903
O         -0.65947       -2.19754       -1.23042
O          0.19197        0.77635        2.26582
O         -3.35181        1.37281       -0.49287
N         -1.89597       -0.32733       -0.95614
N         -1.46673        1.15975        0.78250
C          0.30057       -0.48306        0.19304
C          1.23947        0.38345       -0.78102
C          1.08249       -1.58425        0.94101
C          2.35598        1.13562       -0.02116
C         -0.77563       -1.11504       -0.70097
C         -0.30993        0.50405        1.19806
C          1.82551       -0.44250       -1.93739
C          0.23923       -2.45314        1.87919
C          3.04705        2.22197       -0.85229
C         -2.32056        0.79209       -0.25041
H          0.57334        1.14817       -1.22139
H          1.87992       -1.09693        1.51904
H          1.56212       -2.22771        0.18976
H          3.11053        0.40856        0.32584
H          1.94810        1.59767        0.88936
H          2.56442       -1.17335       -1.57327
H          2.34474        0.22744       -2.63857
H          1.06383       -0.99308       -2.50505
H         -0.22657       -1.85714        2.67956
H         -0.55021       -2.99259        1.33323
H          0.87450       -3.21018        2.36586
H          3.76046        2.78548       -0.23010
H          2.31921        2.94591       -1.25713
H          3.61311        1.81001       -1.70257
H         -2.56288       -0.69569       -1.63129
H         -1.81674        1.89151        1.39755
