22
BUTOXYETHANOL.gamout	Energy:    -386.9702938
O         -0.64193        0.12874       -0.09526
O         -4.14430        0.90049       -0.19618
C          1.72345       -0.18475       -0.02605
C          3.11009        0.46292        0.02629
C          0.58263        0.82278       -0.04804
C          4.25007       -0.55787        0.04802
C         -1.77971        0.95086       -0.12135
C         -3.01029        0.06062       -0.16941
H          1.63645       -0.82552       -0.92143
H          1.58186       -0.84964        0.84451
H          3.17931        1.10970        0.92025
H          3.23460        1.13462       -0.84300
H          0.62550        1.47300        0.85274
H          0.68114        1.49661       -0.92678
H         -1.83376        1.60246        0.77604
H         -1.77846        1.62208       -1.00597
H          4.17352       -1.22185        0.92544
H          4.23038       -1.19664       -0.85105
H          5.23480       -0.06489        0.08627
H         -2.99699       -0.60680        0.71620
H         -2.94089       -0.58786       -1.06631
H         -4.93352        0.34725       -0.22674
