26
BUTYL_NICOTINATE.gamout	Energy:    -593.3225599
O          0.84690        0.07955        0.00112
O         -0.07254        2.13351       -0.00370
N         -2.80375       -1.81093        0.00325
C          3.18211       -0.46249        0.00357
C          4.62533        0.05384        0.00439
C          2.16154        0.66124        0.00161
C          5.66582       -1.06690        0.00609
C         -0.19321        0.92941       -0.00129
C         -1.51037        0.22412       -0.00070
C         -2.68483        0.98964       -0.00329
C         -1.63024       -1.17623        0.00251
C         -3.91190        0.33092       -0.00259
C         -3.91510       -1.06982        0.00073
H          3.01215       -1.10293       -0.88017
H          3.01060       -1.10138        0.88813
H          4.77937        0.70360        0.88545
H          4.78084        0.70214       -0.87749
H          2.26355        1.31208        0.88642
H          2.26499        1.31038       -0.88428
H          5.55865       -1.71101        0.89506
H          5.56001       -1.71224       -0.88214
H          6.69142       -0.66476        0.00659
H         -2.60879        2.07950       -0.00577
H         -0.72958       -1.79795        0.00462
H         -4.85340        0.88544       -0.00456
H         -4.86620       -1.61667        0.00137
