25
BUTYRIC_ANHYDRIDE.gamout	Energy:    -538.2709912
O          4.91411        1.48809        2.04822
C          3.67095        0.86700        2.13354
C          2.56200        1.87303        1.94899
O          3.54906       -0.30998        2.29599
C          6.03032        0.98210        2.71074
C          2.41662        2.82712        3.14971
C          7.29537        1.34788        1.97325
O          5.95068        0.39521        3.74795
C          1.26525        3.81766        2.97501
C          7.52927        2.86595        1.86410
C          8.82954        3.20914        1.13642
H          1.63326        1.30402        1.79340
H          2.76666        2.45917        1.03642
H          3.36478        3.37145        3.29568
H          2.25996        2.22929        4.06442
H          7.23365        0.91535        0.95896
H          8.12837        0.86229        2.50313
H          1.41178        4.45420        2.08592
H          1.17711        4.48194        3.84948
H          0.30132        3.29546        2.85478
H          7.54395        3.30088        2.87898
H          6.67251        3.32409        1.34313
H          9.70579        2.78699        1.65634
H          8.97225        4.29974        1.07378
H          8.83132        2.81227        0.10721
