24
CAFFEINE.gamout	Energy:    -679.5062413
C         -0.88825       -0.22404        0.19743
C         -0.08656       -1.40589        0.36630
C         -0.37048        1.06074        0.23412
N         -2.24668       -0.06085       -0.02201
N          0.96878        1.29739        0.43782
N         -1.33678        1.99338        0.04927
N          1.27638       -1.07069        0.56984
O         -0.48523       -2.56127        0.34470
C          1.84087        0.22111        0.61438
C          1.47799        2.66409        0.47133
C          2.22793       -2.16714        0.75843
O          3.03397        0.37192        0.79864
C         -2.44663        1.28052       -0.10057
C         -3.23758       -1.11837       -0.14365
H          2.55922        2.61291        0.63904
H          1.26546        3.17338       -0.48103
H          0.99481        3.23088        1.28175
H          3.00221       -2.13706       -0.02174
H          2.72638       -2.07571        1.73442
H          1.66476       -3.10472        0.70302
H         -3.43852        1.70110       -0.27172
H         -4.22356       -0.66025       -0.30186
H         -2.99575       -1.77474       -0.99172
H         -3.25792       -1.73180        0.76824
