26
CAMPHENE.gamout	Energy:    -390.1171867
C          0.74076       -0.96776       -0.10217
C          1.79814       -1.96869       -0.61621
C          1.39977        0.42083       -0.02212
C          0.12491       -1.47061        1.25130
C         -0.52015       -0.97107       -0.99843
C         -0.92804       -2.49374        0.76532
C         -0.79786       -0.39664        1.87346
C         -0.59215       -0.60261       -2.28084
C         -1.66231       -1.47642       -0.13651
C         -2.01358       -0.36407        0.89357
H          2.67956       -1.97144        0.04731
H          2.13626       -1.68859       -1.62654
H          1.41240       -2.99726       -0.67313
H          1.85818        0.68339       -0.98909
H          2.20035        0.43435        0.73755
H          0.68173        1.21712        0.22115
H          0.88802       -1.85397        1.94654
H         -1.55914       -2.88357        1.58078
H         -0.50773       -3.34611        0.21207
H         -0.31247        0.58208        1.99246
H         -1.11117       -0.71721        2.87985
H         -1.53429       -0.65094       -2.83634
H          0.28257       -0.23918       -2.82998
H         -2.52635       -1.84246       -0.70966
H         -2.15421        0.61357        0.40797
H         -2.95354       -0.61022        1.41384
