77
CAMPESTEROL.gamout	Energy:   -1169.4538281
O         -2.55638       -7.12964        4.16633
C         -0.10528       -0.42133       -0.27876
C         -1.31169       -0.39122        0.70099
C         -2.09335       -1.70955        0.83439
C         -1.13159       -2.85325        1.26051
C          0.39825        1.06324       -0.15387
C          0.83419       -1.52642        0.23474
C         -1.85951       -4.23289        1.39462
C         -2.06292        0.89366        0.33400
C          0.12036       -2.88322        0.35715
C         -0.93428        1.88115       -0.06357
C         -3.26740       -1.57363        1.81987
C          1.39654        1.63976       -1.19871
C         -0.53173       -0.71179       -1.72758
C         -3.15292       -4.06498        2.19366
C         -0.97785       -5.26615        2.16704
C         -3.76665       -2.88426        2.35431
C         -2.20425       -4.82522        0.00950
C         -3.62203       -5.30761        2.90891
C         -1.21372       -5.22967        3.67499
C          1.71782        3.13088       -0.90792
C         -2.62166       -5.71666        4.02231
C          2.69783        0.83191       -1.31000
C          2.53643        3.85165       -1.99850
C          2.62477        5.39218       -1.87635
C          3.37506        6.03432       -3.07789
C          3.25032        5.79399       -0.53283
C          2.74388        5.69128       -4.43450
C          3.48184        7.56168       -2.95862
H         -0.86313       -0.20973        1.69781
H         -2.51713       -1.96736       -0.15300
H         -0.78182       -2.59132        2.27797
H          0.89668        1.12384        0.83195
H          1.21919       -1.22844        1.22650
H          1.71245       -1.65099       -0.41471
H         -2.75740        0.72142       -0.50601
H         -2.66860        1.27385        1.16914
H         -0.15231       -3.23700       -0.65008
H          0.84167       -3.61988        0.74356
H         -0.84310        2.69375        0.67267
H         -1.15929        2.36877       -1.02691
H         -4.09683       -1.01543        1.35035
H         -2.96219       -0.95140        2.68734
H          0.89592        1.60874       -2.18548
H         -1.17871        0.07745       -2.13701
H          0.34877       -0.78665       -2.38304
H         -1.08380       -1.65666       -1.81714
H         -1.21157       -6.28308        1.81266
H          0.08542       -5.11088        1.94016
H         -4.67322       -2.84696        2.96720
H         -2.74138       -4.10250       -0.62178
H         -1.29970       -5.14817       -0.52772
H         -2.84954       -5.71061        0.11425
H         -3.67510       -6.15802        2.20616
H         -4.63166       -5.16493        3.32311
H         -0.49959       -5.87711        4.20248
H         -1.07462       -4.20689        4.06263
H          0.77260        3.68232       -0.77910
H          2.23717        3.19310        0.06635
H         -2.93373       -5.25520        4.97999
H          3.38758        1.28786       -2.03465
H          3.22212        0.77843       -0.33987
H          2.52141       -0.19749       -1.64917
H          2.08535        3.59894       -2.97106
H          3.56725        3.45341       -2.03156
H          1.58950        5.79036       -1.89749
H         -3.45197       -7.45852        4.31744
H          4.40635        5.62785       -3.07290
H          4.30224        5.46162       -0.46996
H          3.23481        6.88143       -0.37753
H          2.70946        5.34537        0.31322
H          3.28638        6.19542       -5.24973
H          1.69340        6.03006       -4.47962
H          2.75929        4.61496       -4.65645
H          3.96379        7.98307       -3.85420
H          2.48297        8.02476       -2.87013
H          4.07622        7.87789       -2.09034
