49
CANNABINOL.gamout	Energy:    -965.0574869
O          0.89207       -0.11276       -0.05645
C          2.25415       -0.06917       -0.01831
C          2.91097        1.18589        0.01159
C          2.96046       -1.28016       -0.00945
C          2.26687        2.52171        0.00761
C          4.32583        1.12684        0.05025
C          4.35702       -1.30885        0.02936
C          3.09166        3.66818        0.04508
C          0.86669        2.71880       -0.03100
O          5.10395        2.22615        0.08308
C          5.02782       -0.08294        0.05863
C          5.15952       -2.59874        0.04097
C          4.61108        3.58083        0.08663
C          2.50114        4.93882        0.04434
C          0.27999        3.98759       -0.03252
C          4.37846       -3.91765        0.01028
C          5.17243        4.19573        1.37461
C          5.24184        4.22747       -1.15288
C          1.12083        5.10730        0.00649
C         -1.21993        4.15502       -0.07451
C          5.28136       -5.15853        0.02777
C          4.51827       -6.48770       -0.00334
C          5.42758       -7.71836        0.01681
H          0.61917       -1.03921       -0.07283
H          2.38180       -2.20664       -0.03419
H          0.21810        1.84886       -0.06071
H          6.11755       -0.03395        0.08974
H          5.81035       -2.58819        0.93502
H          5.85582       -2.57525       -0.81801
H          3.14101        5.82266        0.07412
H          3.74056       -3.94792       -0.89187
H          3.68964       -3.96030        0.87362
H          4.75329        3.68375        2.25304
H          4.93676        5.26751        1.45093
H          6.26584        4.07390        1.39042
H          4.87207        3.73839       -2.06583
H          6.33455        4.10549       -1.11199
H          5.00984        5.30098       -1.21498
H          0.69750        6.11489        0.00693
H         -1.73000        3.18127       -0.10316
H         -1.53648        4.72881       -0.96235
H         -1.58891        4.70377        0.80897
H          5.92346       -5.12946        0.92848
H          5.97330       -5.11723       -0.83478
H          3.87867       -6.51946       -0.90482
H          3.82538       -6.53086        0.85741
H          6.10821       -7.73151       -0.85164
H          4.84134       -8.65043       -0.00789
H          6.05270       -7.74325        0.92571
