25
CARVACROL.gamout	Energy:    -464.0951121
C         -3.61207        0.87285        0.27401
C         -2.34281        0.06803        0.14171
H         -4.35939        0.37319        0.91865
H         -4.09090        1.05902       -0.70554
H         -3.41051        1.85597        0.72215
C         -1.10337        0.54947        0.58326
C         -2.36876       -1.21317       -0.44173
C          0.06733       -0.19769        0.45572
H         -1.05840        1.54325        1.03890
C         -1.19352       -1.96112       -0.57950
C          0.03772       -1.47181       -0.13343
H          1.00760        0.22166        0.81941
C          1.29266       -2.32220       -0.26667
C          2.44381       -1.57990       -0.96025
H          2.14019       -1.19901       -1.94799
H          3.30508       -2.25194       -1.10698
H          2.79321       -0.72138       -0.36325
C          1.73399       -2.87555        1.09822
H          1.02719       -3.18540       -0.90112
H          2.61319       -3.53179        0.99068
H          0.92860       -3.45929        1.57004
H          2.00308       -2.06019        1.79000
H         -1.26861       -2.94559       -1.04753
O         -3.52101       -1.77570       -0.90174
H         -4.25970       -1.17258       -0.75099
