8
CF3SO3-1.gamout	Energy:    -960.6679424
C          1.01610       -0.06749        0.02168
F          0.58963       -0.60955        1.17928
F          0.59301        1.21204        0.01092
F          2.36236       -0.03239        0.08092
S          0.39721       -1.02791       -1.47529
O         -1.07075       -0.92316       -1.32252
O          0.97331       -2.37032       -1.24078
O          0.98313       -0.26342       -2.59832
