10
CHLOROPENTAFLUOROACETONE.gamout	Energy:   -1147.9334261
C          1.00263        0.00450       -0.03746
C          0.35097       -0.91709        1.03898
O         -0.37076       -0.46790        1.87449
C          0.69421       -2.43427        0.92718
F          0.36036        1.16404       -0.09154
F          0.96395       -0.56854       -1.24523
F          2.27952        0.23238        0.29102
F         -0.05660       -2.95454       -0.05716
F          1.98379       -2.57248        0.58340
Cl         0.37719       -3.28972        2.44568
