6
CHLOROACETONITRILE.gamout	Energy:    -591.9638412
Cl        -2.10560       -0.54210       -0.00000
N          0.53019        2.04648       -0.00010
C         -1.96480        1.25429       -0.00009
C         -0.57278        1.69315       -0.00010
H         -2.47936        1.63515       -0.89394
H         -2.47938        1.63524        0.89370
