10
CHLORAL_HYDRATE.gamout	Energy:   -1608.1583179
Cl        -0.81218       -1.33461        0.50291
Cl        -0.40798        0.55214       -1.70899
Cl        -1.58331        1.47603        0.81029
O          1.37768        1.95474        0.32708
O          1.98653       -0.19795        0.11249
C          1.02857        0.65936        0.64467
C         -0.39459        0.37511        0.05948
H          0.92018        0.51305        1.74369
H          2.34430        1.98081        0.28527
H          1.77542       -1.10658        0.37355
