7
CHLOROACETYL_CHLORIDE.gamout	Energy:   -1072.4468569
Cl         0.81034        1.45232        1.36410
C          1.80135        1.63707       -0.14439
O          1.44017        1.21349       -1.18423
C          3.07623        2.38512        0.19195
Cl         4.13328        2.62677       -1.22233
H          2.80541        3.36196        0.61823
H          3.61921        1.81921        0.96285
