8
CHLORO1,1DIFLUOROETHANE.gamout	Energy:    -737.3767557
Cl        -1.41447       -0.01508        0.00000
C          0.38964        0.05428       -0.00000
C          0.89942        1.47383        0.00000
F          0.83035       -0.61363        1.08307
F          0.83035       -0.61363       -1.08307
H          0.54534        2.00068        0.89597
H          1.99974        1.44515        0.00000
H          0.54535        2.00068       -0.89596
