10
CHLOROPRENE.gamout	Energy:    -615.1764498
C         -0.08882       -0.00622       -0.00684
C          1.06271        0.68202       -0.04494
C          2.38652        0.06154        0.00639
Cl         1.00680        2.43629       -0.16384
C          3.56691        0.69480       -0.02824
H         -1.05800        0.49189       -0.04731
H         -0.06628       -1.09656        0.06681
H          2.35910       -1.03159        0.08026
H          4.50353        0.13445        0.01629
H          3.62467        1.78324       -0.10179
