18
CHLOROCYCLOHEXANE.gamout	Energy:    -694.9434491
Cl         0.14758       -0.25366       -1.99509
C         -0.29077       -0.27244       -0.22206
C         -1.17131       -1.47837        0.08755
C         -0.96476        1.03872        0.16662
C         -1.56340       -1.49246        1.57177
C         -1.35619        1.02322        1.65099
C         -2.23956       -0.18237        1.98581
H          0.67312       -0.36873        0.30235
H         -0.64827       -2.40547       -0.19136
H         -2.07679       -1.41836       -0.54182
H         -1.86543        1.16839       -0.45903
H         -0.29559        1.88369       -0.05529
H         -0.65747       -1.64710        2.18695
H         -2.22292       -2.35226        1.77134
H         -1.86645        1.96498        1.90885
H         -0.44053        0.98670        2.27024
H         -3.20525       -0.08559        1.45548
H         -2.47643       -0.19681        3.06162
