12
CHLOROPENTAFLUOROBENZENE.gamout	Energy:   -1186.9306533
C          6.33187        1.85851       -0.67053
C          6.86570        0.61133       -0.33742
C          4.94639        2.03167       -0.71873
F          7.13860        2.87570       -0.94015
F          4.43864        3.21721       -1.03524
C          4.09757        0.95880       -0.43416
C          4.62496       -0.29466       -0.09951
F          2.78564        1.14748       -0.48616
C          6.01484       -0.46000       -0.05330
Cl         3.57395       -1.61988        0.25225
F          6.54523       -1.63436        0.26073
F          8.18261        0.44710       -0.29132
