5
CHLORODIFLUOROMETHANE.gamout	Energy:    -698.1076437
Cl         1.70319        1.50596        0.00189
C          0.16091        0.60328       -0.00630
F         -0.86408        1.46086       -0.01603
F          0.08912       -0.15897       -1.10175
H          0.12020       -0.02574        0.89691
