79
CHOLESTERYL_ACETATE.gamout	Energy:   -1282.6809528
O          6.59465       -0.26682       -0.97065
O          6.94842        1.83334       -0.22188
C         -2.06111       -1.57614        0.07170
C         -1.18564       -0.67134        0.98036
C          0.31153       -1.01871        1.02811
C          0.89660       -1.00879       -0.40916
C         -3.46572       -0.91453        0.29803
C         -1.46918       -1.47222       -1.34497
C          2.42471       -1.36552       -0.46412
C         -1.97872       -0.56792        2.28882
C          0.02711       -1.83636       -1.37961
C         -3.45868       -0.56194        1.82244
C          1.08488       -0.03135        1.91538
C         -4.75726       -1.64688       -0.14394
C         -2.07675       -3.04070        0.53920
C          3.18505       -0.63156        0.64079
C          3.00145       -0.90548       -1.83174
C          2.56733       -0.04171        1.67549
C          2.66363       -2.88269       -0.29946
C          4.69725       -0.59500        0.52953
C          4.52852       -0.94817       -1.94682
C         -6.03957       -0.86295        0.24100
C          5.16490       -0.12185       -0.84692
C         -4.79691       -2.01918       -1.63402
C         -6.21333        0.53664       -0.36926
C         -7.51339        1.21995        0.07891
C         -7.76630        2.65089       -0.44002
C          7.37066        0.78294       -0.63941
C         -7.87950        2.71796       -1.96548
C         -6.74325        3.66436        0.08119
C          8.83138        0.47141       -0.86613
H         -1.23961        0.33173        0.51252
H          0.43422       -2.03132        1.45449
H          0.82611        0.04422       -0.74434
H         -3.42640        0.03550       -0.26471
H         -1.59788       -0.43789       -1.71148
H         -2.00190       -2.12254       -2.05357
H         -1.77153       -1.42948        2.94631
H         -1.72179        0.33471        2.86143
H          0.39582       -1.70877       -2.40955
H          0.13410       -2.91021       -1.15758
H         -4.05685       -1.28540        2.40155
H         -3.92466        0.42021        1.99159
H          0.88650       -0.23374        2.98217
H          0.70807        1.00000        1.74852
H         -4.81152       -2.58993        0.42976
H         -2.53452       -3.15502        1.53240
H         -1.06724       -3.46990        0.59888
H         -2.65299       -3.66437       -0.16086
H          2.56538       -1.51481       -2.63687
H          2.67366        0.13235       -2.01414
H          3.17873        0.48245        2.41705
H          2.17759       -3.26469        0.61010
H          3.73413       -3.10981       -0.20862
H          2.28308       -3.44913       -1.16185
H          5.10946        0.06189        1.30751
H          5.12812       -1.60075        0.69159
H          4.83499       -0.55359       -2.92711
H          4.91341       -1.98091       -1.89078
H         -6.90785       -1.48364       -0.04879
H         -6.09863       -0.78074        1.33941
H          4.91796        0.94402       -0.97053
H         -4.63124       -1.14606       -2.28657
H         -5.77891       -2.44528       -1.89473
H         -4.03912       -2.77082       -1.89370
H         -6.19510        0.47032       -1.47080
H         -5.35299        1.16915       -0.09093
H         -7.53885        1.24482        1.18394
H         -8.37007        0.58991       -0.22349
H         -8.74924        2.94626       -0.02900
H         -8.63919        2.01543       -2.34510
H         -8.16880        3.72877       -2.29447
H         -6.92326        2.47542       -2.45967
H         -5.72748        3.45830       -0.29716
H         -7.00585        4.68699       -0.23357
H         -6.69586        3.65839        1.18237
H          9.24905        1.21086       -1.56629
H          8.97190       -0.54174       -1.26161
H          9.37532        0.58215        0.08471
