74
CHOLESTEROL.gamout	Energy:   -1130.2077853
O          7.62276        1.24793       -0.19832
C         -0.86484       -1.07684       -0.28553
C         -0.14243       -0.43537        0.93041
C          1.38772       -0.59062        0.94139
C          1.99224       -0.02572       -0.37295
C         -2.36092       -0.76672        0.07159
C         -0.29344       -0.38736       -1.53625
C          3.54825       -0.21117       -0.45766
C         -0.95098       -0.91082        2.14395
C          1.23712       -0.52531       -1.62455
C         -2.41081       -0.96718        1.62245
C          2.02280        0.11715        2.14879
C         -3.49755       -1.51704       -0.66921
C         -0.64177       -2.59687       -0.36485
C          4.20540        0.16453        0.87156
C          4.11550        0.73890       -1.54923
C          3.50451        0.32188        2.00506
C          3.93114       -1.66819       -0.80197
C          5.70881        0.34373        0.86295
C          5.64358        0.84074       -1.58669
C         -4.90038       -1.19515       -0.09485
C          6.20525        1.27805       -0.23716
C         -3.49358       -1.31933       -2.19251
C         -5.40069        0.25191       -0.22946
C         -6.79393        0.44341        0.38577
C         -7.43193        1.84386        0.27209
C         -7.70872        2.25589       -1.17719
C         -6.63675        2.92610        1.00870
H         -0.33482        0.65147        0.83493
H          1.63314       -1.66571        1.01420
H          1.82394        1.06793       -0.32185
H         -2.49515        0.31108       -0.13335
H         -0.56143        0.68402       -1.50628
H         -0.73158       -0.79341       -2.45849
H         -0.84751       -0.23855        3.00815
H         -0.60802       -1.90592        2.47478
H          1.48544       -1.58060       -1.81759
H          1.58681        0.02674       -2.51121
H         -2.88165       -1.92978        1.88331
H         -3.03206       -0.18986        2.09239
H          1.82619       -0.45130        3.07451
H          1.53450        1.10151        2.30929
H         -3.34989       -2.59536       -0.47983
H         -1.09491       -3.00838       -1.27953
H          0.42339       -2.86116       -0.38459
H         -1.08884       -3.12705        0.48871
H          3.70380        1.74819       -1.37260
H          3.74907        0.42382       -2.53755
H          4.04230        0.61691        2.91227
H          3.62601       -1.93874       -1.82337
H          5.01669       -1.82179       -0.73744
H          3.46601       -2.37745       -0.10159
H          6.05216        0.71553        1.83852
H          6.22066       -0.62328        0.70110
H          6.10732       -0.12167       -1.86514
H          5.93772        1.56378       -2.36661
H         -5.62451       -1.86232       -0.59868
H         -4.93272       -1.48547        0.96832
H          5.83692        2.30390       -0.01934
H         -3.51541       -0.25308       -2.47220
H         -4.37838       -1.79763       -2.64288
H         -2.60910       -1.76644       -2.66607
H         -4.68543        0.94055        0.25313
H         -5.42529        0.53875       -1.29487
H          7.95890        1.88767       -0.83940
H         -6.74856        0.17196        1.45667
H         -7.48720       -0.28474       -0.07420
H         -8.41180        1.76145        0.77780
H         -8.30162        1.49280       -1.70753
H         -8.27436        3.20066       -1.21548
H         -6.77689        2.41104       -1.74654
H         -6.46129        2.65247        2.06197
H         -7.17880        3.88536        1.00107
H         -5.65356        3.10300        0.54062
