86
CHOLESTERYL_BENZOATE.gamout	Energy:   -1474.1701684
O          5.72768        0.34427        0.23011
O          6.31604       -1.51417        1.36570
C         -3.06656        0.28373       -0.33310
C         -2.19976       -0.99913       -0.22395
C         -0.73663       -0.84976       -0.67247
C         -0.04842        0.29644        0.11451
C         -4.45259       -0.26386        0.16708
C         -2.37839        1.34060        0.54954
C          1.43498        0.54578       -0.33361
C         -3.06624       -2.09506       -0.85615
C         -0.91330        1.57643        0.14337
C         -4.51162       -1.70450       -0.44693
C          0.05439       -2.15360       -0.48594
C         -5.74766        0.55894       -0.08319
C         -3.18784        0.78858       -1.78117
C          2.17943       -0.78100       -0.48506
C          2.16284        1.37655        0.75860
C          1.54388       -1.96159       -0.53492
C          1.50285        1.30788       -1.67579
C          3.69058       -0.71680       -0.59999
C          3.67784        1.50276        0.57381
C         -6.98899       -0.18375        0.47271
C          4.32742        0.13436        0.50117
C         -5.68519        1.98735        0.47755
C         -8.36001        0.40740        0.09471
C         -9.54940       -0.43750        0.58107
C        -10.93998        0.01761        0.10038
C          6.61955       -0.53563        0.72041
C        -12.01556       -0.99452        0.51127
C        -11.31154        1.41984        0.59321
C          8.02432       -0.16458        0.37600
C          9.05279       -1.01273        0.80773
C          8.33687        0.99039       -0.35399
C         10.38019       -0.71136        0.51229
C          9.66675        1.29000       -0.64719
C         10.68905        0.44089       -0.21593
H         -2.16184       -1.22408        0.86040
H         -0.72001       -0.59878       -1.74905
H          0.01163       -0.06492        1.15972
H         -4.35135       -0.37161        1.26356
H         -2.41862        0.99836        1.59913
H         -2.90605        2.30381        0.51715
H         -2.79338       -3.10096       -0.50567
H         -2.95364       -2.10075       -1.95389
H         -0.47188        2.30525        0.84092
H         -0.89421        2.06294       -0.84458
H         -4.92130       -2.41730        0.28381
H         -5.18974       -1.73459       -1.31599
H         -0.21306       -2.62623        0.48221
H         -0.23551       -2.89157       -1.25395
H         -5.88053        0.63426       -1.17951
H         -3.72764        0.07840       -2.42442
H         -3.73509        1.74233       -1.81611
H         -2.20871        0.96055       -2.24724
H          1.72576        2.38432        0.80768
H          1.96969        0.90253        1.73570
H          2.14174       -2.87466       -0.62146
H          1.12215        2.33482       -1.57613
H          2.53505        1.37849       -2.04413
H          0.91829        0.79472       -2.45297
H          3.98992       -0.27465       -1.56876
H          4.10608       -1.73298       -0.56925
H          3.92635        2.06409       -0.34299
H          4.10624        2.06923        1.41362
H         -6.96829       -1.22768        0.12134
H         -6.90830       -0.23981        1.57630
H          4.24221       -0.38881        1.46640
H         -4.89126        2.58285        0.00857
H         -6.62752        2.52389        0.29541
H         -5.50745        1.98608        1.56708
H         -8.41750        0.50768       -1.00604
H         -8.45316        1.43076        0.49434
H         -9.40120       -1.48253        0.25274
H         -9.54941       -0.47314        1.68839
H        -10.91553        0.04636       -1.00690
H        -11.78839       -2.00378        0.13159
H        -13.00374       -0.70503        0.12031
H        -12.09904       -1.06304        1.61040
H        -10.59978        2.18339        0.24458
H        -11.33374        1.45923        1.69683
H        -12.30971        1.71200        0.23022
H          8.78615       -1.90501        1.37505
H          7.53344        1.64689       -0.68580
H         11.17896       -1.37515        0.84943
H          9.90893        2.19039       -1.21577
H         11.73012        0.67792       -0.44760
