30
CHRYSENE.gamout	Energy:    -692.2476439
C          3.13297        1.89387        4.74565
C          2.48992        2.35122        5.92483
C          2.63126        2.29663        3.43968
C          4.27359        1.03673        4.87876
C          2.99173        1.94843        7.23043
C          1.34946        3.20823        5.79164
C          1.49105        3.15237        3.36066
C          3.22270        1.87889        2.21950
C          4.75105        0.65393        6.10002
C          4.13202        1.09273        7.30947
C          2.40049        2.36598        8.45063
C          0.87217        3.59095        4.57023
C          0.99206        3.55200        2.09603
C          2.71980        2.28051        0.99641
C          4.63098        0.69292        8.57398
C          2.90324        1.96419        9.67369
C          1.59264        3.12610        0.92899
C          4.03042        1.11867        9.74109
H          4.77981        0.67602        3.98440
H          0.84303        3.56896        6.68585
H          4.09492        1.22569        2.23177
H          5.62296       -0.00041        6.16426
H          1.52825        3.01914        8.43847
H          0.00032        4.24539        4.50609
H          0.11836        4.20713        2.06249
H          3.19976        1.93998        0.07639
H          5.50488        0.03807        8.60737
H          2.42315        2.30472       10.59368
H          1.20213        3.43852       -0.04173
H          4.42090        0.80613       10.71178
