35
CIANIDANOL.gamout	Energy:   -1030.0360500
O          0.43330        0.64106       -0.15467
O         -0.69271       -2.81709       -0.27640
O          4.39256       -1.99259        0.15512
O          4.66938        2.76229        0.29766
O         -4.09648        1.73488        1.75089
O         -5.85697        0.67354        0.07402
C          0.11062       -1.74536        0.17101
C         -0.32763       -0.48369       -0.59786
C          1.59477       -2.00894       -0.09008
C          2.40602       -0.74207       -0.00410
C          1.78174        0.51038       -0.04032
C         -1.79193       -0.14889       -0.44998
C          3.80715       -0.76447        0.12764
C          2.51234        1.70297        0.06185
C         -2.25072        0.66818        0.59457
C         -2.72465       -0.69079       -1.33403
C          4.55582        0.40893        0.22842
C          3.90017        1.64723        0.19830
C         -3.60808        0.94190        0.76115
C         -4.08728       -0.42927       -1.17059
C         -4.54676        0.38043       -0.13213
H         -0.05589       -1.54208        1.24858
H         -0.11437       -0.66388       -1.66866
H          1.68015       -2.46977       -1.09145
H          1.98406       -2.75278        0.62426
H          1.97496        2.65210        0.02336
H         -1.52996        1.11666        1.28354
H         -0.49737       -3.59216        0.26504
H         -2.39143       -1.32985       -2.15272
H          5.64300        0.38422        0.32839
H         -4.81377       -0.85830       -1.86823
H          5.34532       -1.88764        0.27544
H          4.10277        3.54376        0.25702
H         -3.36173        2.05126        2.29171
H         -6.38514        0.23624       -0.60610
