19
CINNAMIC_ACID.gamout	Energy:    -497.5801303
C          1.56205        0.91699        2.32771
C          2.83582        0.53415        2.55593
C          3.97955        1.39227        2.88004
C          0.46645       -0.01763        2.00609
C          5.23933        0.79788        3.08636
C          3.87933        2.79295        2.99657
O          0.84972       -1.31670        1.95669
O         -0.67793        0.32138        1.80111
C          6.35875        1.57015        3.39750
C          4.99587        3.56386        3.30669
C          6.24141        2.95721        3.50888
H          1.24301        1.96079        2.36439
H          3.05207       -0.53700        2.49514
H          5.33689       -0.28754        3.00062
H          2.91708        3.28444        2.84330
H          0.04959       -1.82369        1.73910
H          7.32596        1.08700        3.55317
H          4.89583        4.64825        3.39209
H          7.11558        3.56580        3.75215
