16
CIS,CIS-2,4-HEXADIENE.gamout	Energy:    -234.2915451
C          0.55947        2.65868        1.27233
C          1.32759        1.37274        1.21291
C          2.66503        1.20893        1.12800
C          3.66727        2.26387        1.07603
C          5.00469        2.10035        0.99130
C          5.77314        0.81466        0.93204
H         -0.04292        2.71441        2.19711
H          1.20148        3.55026        1.23669
H         -0.15767        2.72677        0.43422
H          0.71666        0.46252        1.24281
H          3.03412        0.17916        1.09500
H          3.29797        3.29358        1.10888
H          5.61530        3.01077        0.96135
H          6.49030        0.74687        1.77015
H          5.13131       -0.07704        0.96787
H          6.37548        0.75899        0.00724
