16
CIS,TRANS-2,4-HEXADIENE.gamout	Energy:    -234.2938184
C          6.07820        0.67987        0.95111
C          5.54049        2.06120        1.17862
C          4.25350        2.43248        1.34220
C          3.07653        1.57445        1.33571
C          1.81818        2.02561        1.50389
C          0.58284        1.17873        1.50266
H          5.29589       -0.09221        0.93019
H          6.63051        0.62467       -0.00444
H          6.80100        0.40453        1.74040
H          6.29523        2.85609        1.21366
H          4.05422        3.49953        1.49859
H          3.22745        0.49897        1.18429
H          1.66868        3.10360        1.65575
H         -0.12068        1.49493        0.71093
H          0.81647        0.11406        1.34382
H          0.03213        1.26760        2.45696
