27
CIS,TRANS-1,2,3-TRIMETHYLCYCLOHEXANE.gamout	Energy:    -353.2935912
C          1.79381        1.49003        2.61700
C          2.52141        2.16581        1.44607
C          1.99381        3.59530        1.12157
C          4.06267        2.15855        1.69102
C          0.46819        3.72417        1.17836
C          2.70013        4.64382        1.99120
C          4.71019        0.85742        1.20539
C          4.74356        3.39114        1.08327
C          4.21702        4.70260        1.69503
H          2.25799        0.51984        2.85721
H          0.73470        1.29308        2.39352
H          1.83424        2.10552        3.53225
H          2.32493        1.55561        0.54482
H          2.28282        3.80437        0.07605
H          4.22131        2.21704        2.78592
H          0.14923        4.69702        0.77027
H          0.07998        3.65855        2.20840
H         -0.02704        2.93807        0.58474
H          2.52587        4.40677        3.05650
H          2.24297        5.63368        1.83063
H          5.77748        0.81454        1.47699
H          4.64098        0.76654        0.10713
H          4.22280       -0.02903        1.64245
H          4.58783        3.38782       -0.01096
H          5.83471        3.32504        1.22757
H          4.76720        4.92100        2.62532
H          4.43787        5.53716        1.00904
