18
CIS-2-HEXENE.gamout	Energy:    -235.5059944
C          3.25294        1.75137        1.28907
C          2.04104        2.55637        1.67531
C          1.48959        2.24212        3.08189
C          4.51280        2.18527        1.12604
C          0.99508        0.80681        3.26910
C          5.04011        3.58330        1.27454
H          3.07704        0.68029        1.13052
H          2.25988        3.63426        1.61706
H          1.23819        2.36509        0.93684
H          2.27389        2.46227        3.82813
H          0.65867        2.93955        3.28939
H          5.26410        1.43566        0.84614
H          0.56741        0.66418        4.27428
H          0.21025        0.55230        2.53573
H          1.80859        0.07227        3.15242
H          5.83245        3.62437        2.04357
H          5.50520        3.93101        0.33443
H          4.26433        4.31046        1.55477
