6
CIS-1,2-DICHLOROETHYLENE.gamout	Energy:    -997.2811426
C          2.15109        1.50565        0.12030
C          0.81605        1.45437        0.08997
Cl         3.20048        0.13324        0.07356
H          2.66436        2.46809        0.17894
H          0.22780        2.37418        0.12368
Cl        -0.12130        0.00567       -0.00223
