24
CIS-3-OCTENE.gamout	Energy:    -314.0178247
C          4.61410        2.44387        2.30417
C          4.54176        3.75595        1.56899
C          3.19861        4.01330        0.85425
C          5.32274        1.35374        1.96966
C          1.98025        4.10618        1.77843
C          6.24700        1.16541        0.79755
C          0.68376        4.43118        1.03515
C          7.68564        0.84020        1.22442
H          4.00458        2.37642        3.21354
H          4.71563        4.57768        2.28970
H          5.35205        3.82358        0.82618
H          3.28539        4.95634        0.28453
H          3.03153        3.21436        0.10880
H          5.24420        0.48340        2.63531
H          2.16840        4.87971        2.54636
H          1.85488        3.15521        2.32556
H          6.24468        2.05632        0.14969
H          5.86643        0.33282        0.17518
H          0.44557        3.65885        0.28389
H         -0.17214        4.49555        1.72614
H          0.75403        5.39558        0.50311
H          8.32916        0.65847        0.34869
H          8.12578        1.66831        1.80381
H          7.72266       -0.06189        1.85847
