22
CIS-3-METHYLCYCLOHEXANOL.gamout	Energy:    -349.9151619
C          2.38238        2.68016        0.02116
C          0.85474        2.56109       -0.00126
C          3.04249        1.29780        0.06884
C          0.31805        1.75224        1.18720
C          1.02472        0.39178        1.29163
C          3.19969        0.88929        2.58792
C          2.56605        0.44631        1.26121
O          0.36293        2.49261        2.40228
H          2.72971        3.23605       -0.86396
H          2.70107        3.28546        0.89031
H          0.38061        3.55490        0.00218
H          0.54740        2.05949       -0.93661
H          4.14059        1.39671        0.09258
H          2.79834        0.76358       -0.86685
H         -0.75611        1.56580        1.02719
H          0.67685       -0.11547        2.20540
H          0.68585       -0.22441        0.43974
H          2.78762        0.32096        3.43632
H          4.28914        0.72600        2.57114
H          3.04745        1.95873        2.81107
H          2.91333       -0.58626        1.08473
H          1.27021        2.78299        2.55617
