28
CIS-DECAHYDRONAPHTHALENE.gamout	Energy:    -391.3540771
C          0.11583        0.81210       -0.69599
C         -1.35156        0.34242       -0.53427
C          1.08179       -1.15777        0.56830
H         -0.38358       -2.78116        0.70944
H         -0.19780       -2.12020       -0.91194
C          0.96002        0.39020        0.51565
H          0.54574        0.38647       -1.61934
H          0.15317        1.90626       -0.82373
C         -1.46820       -0.92283        0.34465
H         -1.96290        1.14960       -0.09642
H         -1.78112        0.14236       -1.53053
C         -0.25294       -1.83641        0.15527
H         -1.55181       -0.64096        1.40890
H         -2.39613       -1.46482        0.10158
C          2.32584        1.09089        0.63709
C          2.25043       -1.69896       -0.27890
H          4.36026       -1.39315       -0.69271
H          3.91419       -1.13757        1.00091
H          0.38720        0.69917        1.40701
C          3.40708        0.52529       -0.28587
H          2.19730        2.17306        0.46724
H          2.67554        0.98428        1.68022
C          3.57692       -0.97396       -0.03997
H          3.13339        0.69427       -1.34378
H          4.35732        1.05903       -0.12224
H          1.29522       -1.41799        1.62154
H          2.35930       -2.77950       -0.08560
H          1.99069       -1.60951       -1.35052
