18
CIS-3-HEXENE.gamout	Energy:    -235.5064878
C          3.15763        3.94475        1.94541
C          2.05153        3.27669        1.58436
C          1.94384        1.90179        0.98322
C          4.59117        3.49928        1.85081
C          1.10585        0.94386        1.84231
C          5.29174        3.46702        3.21718
H          3.01806        4.94447        2.37884
H          1.08911        3.77964        1.75023
H          2.94196        1.46768        0.81232
H          1.47167        1.98738       -0.01421
H          5.13836        4.19869        1.19005
H          4.66505        2.50821        1.37507
H          1.00162       -0.03947        1.35628
H          1.56875        0.78806        2.83048
H          0.09072        1.34107        2.01239
H          6.35246        3.18765        3.11373
H          4.81236        2.74014        3.89317
H          5.25311        4.45266        3.71156
