21
CIS-3-HEPTENE.gamout	Energy:    -274.7628205
C          1.53363        2.44895        1.91528
C          2.63370        1.54838        2.50291
C          0.83875        3.30939        2.97086
C          3.28136        0.65172        1.48363
C          4.57689        0.58925        1.13925
C          5.72373        1.39834        1.68099
C          6.44661        2.20591        0.59320
H          1.97450        3.09600        1.13609
H          0.78605        1.81863        1.39917
H          2.18048        0.91940        3.29459
H          3.38765        2.17552        3.00661
H          1.55504        3.97918        3.47678
H          0.05247        3.94032        2.52636
H          0.36479        2.68701        3.74918
H          2.59232       -0.02491        0.96070
H          4.85135       -0.13290        0.35875
H          5.38078        2.07548        2.47916
H          6.45254        0.71176        2.15276
H          6.82411        1.54915       -0.20875
H          5.76979        2.94056        0.12699
H          7.30771        2.75278        1.00968
