22
CIS-2-METHYLCYCLOHEXANOL.gamout	Energy:    -349.9198250
C          0.02444        1.29822       -0.07567
C         -0.05047       -0.22703        0.03482
C          0.70679       -0.73920        1.26546
C          2.16708       -0.25713        1.29677
C          2.23355        1.28244        1.19163
C          1.47690        1.78660       -0.04592
O          1.78260        1.92418        2.37934
C          2.92650       -0.77865        2.51736
H         -0.47295        1.64522       -0.99548
H         -0.53987        1.75767        0.75879
H         -1.10085       -0.55940        0.06712
H          0.39145       -0.67633       -0.87392
H          0.68158       -1.84053        1.29890
H          0.18934       -0.40244        2.18568
H          2.65865       -0.65024        0.38599
H          3.29132        1.58134        1.10836
H          1.52072        2.88685       -0.06359
H          1.99952        1.42800       -0.95110
H          0.84460        1.72810        2.50130
H          3.98729       -0.48126        2.48328
H          2.88728       -1.87840        2.57560
H          2.50125       -0.36677        3.44588
