10
CIS-CROTONITRILE.gamout	Energy:    -209.8661393
C          0.84811        1.61095        1.99918
C          1.71055        1.54432        0.96686
C          0.95616        0.80868        3.18000
C          2.90359        0.65218        0.85997
N          1.02925        0.16536        4.14525
H          0.00342        2.30576        1.97012
H          1.51752        2.21198        0.11928
H          3.82125        1.25132        0.72583
H          3.02979        0.01338        1.74601
H          2.82104        0.00462       -0.03045
