6
CIS-1,2-DIIODOETHYLENE.gamout	Energy:    -672.6681804
C          1.00360       -0.07140       -0.01658
C          0.33751       -0.51135        1.04958
I          1.13842       -1.25250        2.84309
I          3.08472        0.03560       -0.27255
H          0.46043        0.29069       -0.89308
H         -0.75553       -0.51272        1.05247
