27
CIS-1-METHYL-2-ETHYLCYCLOHEXANE.gamout	Energy:    -353.2962312
C          1.02296        3.55429        1.48244
C          1.30227        2.06511        1.72487
C          2.76613        1.62132        1.97218
C          3.23184        1.66376        3.45363
C          3.77729        2.30497        1.03716
C          3.12392        3.03082        4.14322
C          4.65684        1.08284        3.56059
C          5.66431        1.76827        2.63214
H          1.33101        4.19118        2.32515
H          1.53613        3.92760        0.58177
H         -0.05635        3.71477        1.32857
H          0.93105        1.51177        0.84388
H          0.68391        1.71226        2.57046
H          2.78534        0.54625        1.71278
H          2.56679        0.97718        4.00794
H          3.43344        2.21368       -0.00739
H          3.49253        2.96238        5.17969
H          3.71286        3.81402        3.63916
H          2.08166        3.37750        4.19122
H          4.62010        0.00818        3.30523
H          5.00308        1.13848        4.60646
H          6.65209        1.28857        2.73168
C          5.18729        1.72183        1.17854
H          3.81608        3.38785        1.25141
H          5.80423        2.82147        2.93639
H          5.19109        0.67305        0.82672
H          5.88680        2.27127        0.52761
