24
CIS-1,3-DIMETHYLCYCLOHEXANE.gamout	Energy:    -314.0513260
C          1.04291        2.02539        5.67735
C          1.91845        1.53426        4.52106
C          1.69379        2.35880        3.24322
C          3.40863        1.53174        4.89022
C          2.56156        1.90125        2.05989
C          2.31483        2.75099        0.81016
C          4.04272        1.89235        2.46305
H         -0.02771        1.99168        5.41572
H          1.18556        1.40955        6.58067
H          1.28631        3.06866        5.94511
H          1.62996        0.48787        4.29753
H          1.91733        3.42226        3.46034
H          0.62778        2.31882        2.95925
H          3.57500        0.89465        5.77571
H          2.27562        0.85714        1.82288
H          2.91667        2.39590       -0.04254
H          1.25529        2.72345        0.50649
H          2.58156        3.80779        0.98758
H          4.65638        1.50940        1.62969
C          4.29031        1.06430        3.72796
H          3.70540        2.55729        5.18391
H          4.37073        2.93532        2.63776
H          4.07666        0.00027        3.51434
H          5.35386        1.11581        4.01374
