18
CIS-1-METHYL-2-ETHYLCYCLOPROPANE.gamout	Energy:    -235.4966719
C          2.01390        2.60808        0.67098
C          1.78729        2.44800        2.15530
C          3.19415        2.41247        1.59231
C          4.04403        1.15646        1.54162
C          4.81380        0.88672        2.83808
H          1.73535        1.76466        0.02903
H          1.85554        3.58738        0.20970
H          3.78295        3.31715        1.79144
H          4.75963        1.25194        0.70478
H          3.41414        0.28467        1.29530
H          5.47436        1.73303        3.09295
H          4.13057        0.73663        3.69005
H          5.44603       -0.01186        2.75139
C          1.08124        1.22993        2.70947
H          1.53726        3.37325        2.68825
H          1.34441        1.05250        3.76599
H         -0.01283        1.35866        2.65859
H          1.32585        0.31518        2.14759
