21
CIS-1,2-DIMETHYLCYCLOPENTANE.gamout	Energy:    -274.7816153
C          2.23717        2.93237        3.82376
C          2.32313        1.54497        3.17766
C          2.06765        1.53670        1.65020
C          3.74101        0.95015        3.25977
C          0.84924        2.30905        1.15010
C          3.41167        2.00327        1.04965
C          4.50590        1.53798        2.04714
H          2.92680        3.65597        3.35713
H          1.22188        3.35299        3.75603
H          2.49876        2.87644        4.89284
H          1.59678        0.88761        3.68641
H          1.92954        0.47531        1.37114
H          4.23385        1.16247        4.22131
H          3.68009       -0.14705        3.16735
H          0.72895        2.18840        0.06102
H         -0.07939        1.95289        1.62628
H          0.93654        3.38971        1.35105
H          3.56277        1.60097        0.03552
H          3.41629        3.10253        0.95126
H          5.14173        2.38501        2.35031
H          5.18023        0.78904        1.60388
