13
CIS-1,3-PENTADIENE.gamout	Energy:    -195.0257470
C          2.85472        0.48332        1.74317
C          1.49895        1.02422        1.89547
C          1.09254        2.30881        1.85602
C          3.83067        0.92421        0.93246
C          1.93079        3.53884        1.67695
H          3.06157       -0.40994        2.34802
H          0.72963        0.27166        2.10748
H          0.01927        2.48579        1.99756
H          3.68901        1.76588        0.24920
H          4.80472        0.42805        0.90883
H          1.85253        3.93533        0.64731
H          2.99604        3.35004        1.87782
H          1.58414        4.34393        2.34635
