10
CIS-CROTONONITRILE.gamout	Energy:    -209.8660840
N          2.06256       -0.50620        0.00001
C         -1.71371       -1.01091       -0.00001
C         -1.33884        0.43457        0.00001
C         -0.09027        0.93988       -0.00001
C          1.09312        0.13460        0.00000
H         -2.33233       -1.24776       -0.88346
H         -0.83565       -1.67237       -0.00010
H         -2.33211       -1.24777        0.88357
H         -2.16283        1.15743        0.00005
H          0.06802        2.02238        0.00006
