21
CIS-1,3-DIMETHYLCYCLOPENTANE.gamout	Energy:    -274.7850344
C          2.05706        1.90944        2.17940
C          0.64099        1.61078        1.69248
C          2.67747        3.20648        1.63994
C          3.10238        0.83095        1.80003
C          4.17332        3.06256        1.95498
C          4.45609        1.57362        1.64224
C          5.09030        4.04390        1.22957
H          2.03206        1.99122        3.28272
H          0.60828        1.52799        0.59193
H         -0.06468        2.40413        1.98897
H          0.26795        0.66091        2.10896
H          2.23029        4.11391        2.07814
H          2.52936        3.26410        0.54349
H          2.81322        0.35083        0.84937
H          3.14518        0.02780        2.55300
H          4.29742        3.21586        3.04423
H          4.82918        1.47792        0.60782
H          5.24307        1.16454        2.29566
H          6.14779        3.87090        1.48849
H          4.85096        5.08815        1.48867
H          4.99485        3.94078        0.13427
