27
CIS-1-METHYL-4-ETHYLCYCLOHEXANE.gamout	Energy:    -353.2958096
C          0.70234        1.73343        1.15749
C          2.05190        1.01318        1.09099
C          3.13179        1.55200        2.04408
C          3.63608        2.95420        1.67885
C          4.33786        0.58423        2.12735
C          4.56511        3.53405        2.76707
C          5.64506        1.27052        2.57882
C          5.37650        2.45196        3.51728
C          6.65875        3.02368        4.12358
H          0.78089        2.79497        0.87125
H         -0.02952        1.26648        0.47907
H          0.27944        1.69652        2.17613
H          1.89366       -0.05682        1.31682
H          2.44076        1.04732        0.05538
H          2.67464        1.61752        3.05087
H          4.17738        2.88580        0.71746
H          2.79468        3.64313        1.50412
H          4.08530       -0.23939        2.81718
H          4.49729        0.11580        1.14021
H          5.26194        4.25409        2.30245
H          3.97563        4.11182        3.49964
H          6.30781        0.53693        3.06622
H          6.20131        1.64319        1.69882
H          4.75528        2.07374        4.35179
H          7.19064        2.27151        4.72936
H          7.35174        3.36788        3.33550
H          6.44472        3.88693        4.77505
