24
CIS-2-OCTENE.gamout	Energy:    -314.0173584
C          3.00385        3.48113        0.93974
C          2.00769        3.60444        2.10711
C          0.78634        2.67941        2.00016
C          4.09976        4.51040        0.99289
C          1.07376        1.17120        2.02473
C          5.42163        4.30942        1.10557
C          1.71030        0.66530        3.32080
C          6.15454        3.00177        1.18928
H          3.42847        2.46538        0.91505
H          2.44273        3.60404       -0.00778
H          2.54291        3.42641        3.05649
H          1.64907        4.64788        2.15967
H          0.09200        2.91906        2.82638
H          0.24322        2.91894        1.06807
H          3.75669        5.55282        0.94900
H          0.12111        0.63808        1.86172
H          1.71664        0.89766        1.16856
H          6.05921        5.20200        1.13843
H          1.08640        0.91268        4.19717
H          2.70692        1.10402        3.49281
H          1.83481       -0.42908        3.30119
H          5.48393        2.13046        1.16345
H          6.74938        2.94153        2.11839
H          6.87250        2.89765        0.35589
