16
CIS-1,4-HEXADIENE.gamout	Energy:    -234.2785210
C          5.28675        3.09466        2.54992
C          4.83004        1.99280        1.94963
C          3.71299        1.94933        0.93600
C          2.60199        1.00970        1.33771
C          1.30568        1.29820        1.52276
C          0.61893        2.62525        1.37723
H          6.10363        3.05211        3.27564
H          4.86264        4.08267        2.33897
H          5.28576        1.02480        2.19967
H          3.33357        2.96731        0.75874
H          4.13279        1.59714       -0.02852
H          2.91279       -0.03015        1.50036
H          0.65102        0.46781        1.81687
H          0.11914        2.91251        2.31956
H          1.30465        3.43953        1.10097
H         -0.17322        2.57797        0.60852
