26
CIS-STILBENE.gamout	Energy:    -539.9649235
C          4.44676        1.18178        4.56956
C          5.66787        1.68729        4.27888
C          6.17957        2.39126        3.08671
C          3.23059        1.03197        3.74805
C          7.54018        2.25706        2.74736
C          5.39049        3.26061        2.30992
C          1.97101        1.07937        4.37631
C          3.26738        0.76177        2.36704
C          8.08438        2.93171        1.65360
C          5.93531        3.94199        1.22313
C          0.79260        0.90306        3.64988
C          2.09122        0.57664        1.64270
C          7.28168        3.77677        0.88411
C          0.84752        0.65301        2.27682
H          4.33452        0.79598        5.58916
H          6.41689        1.57431        5.07076
H          8.17736        1.60546        3.35134
H          4.34254        3.41230        2.57195
H          1.91922        1.26393        5.45275
H          4.23033        0.68213        1.86093
H          9.14082        2.80190        1.40681
H          5.30469        4.61630        0.63878
H         -0.17206        0.95415        4.16025
H          2.14645        0.36183        0.57276
H          7.70380        4.31309        0.03143
H         -0.07203        0.50718        1.70520
