22
CIS-1-PHENYL-1-BUTENE.gamout	Energy:    -387.7401443
C          6.30450        1.79393        5.73950
C          5.29856        0.82683        5.69288
C          6.27245        2.85762        4.83034
C          4.27530        0.92770        4.74874
C          4.22318        1.99227        3.82789
C          5.24963        2.95532        3.88877
C          3.11227        2.03986        2.86070
C          2.84576        3.00055        1.95776
C          1.69985        3.01832        0.98248
C          0.74871        1.82485        1.02507
H          7.10882        1.72065        6.47523
H          5.30724       -0.01202        6.39276
H          7.05650        3.61857        4.85466
H          3.49232        0.16457        4.72132
H          5.25398        3.79250        3.18768
H          2.44055        1.17707        2.91403
H          3.50619        3.87408        1.89922
H          2.11842        3.12178       -0.03790
H          1.12699        3.95308        1.14090
H          0.26541        1.72588        2.01073
H          1.27306        0.87872        0.81350
H         -0.04802        1.93871        0.27402
