6
CIS-1,2-DIFLUOROETHYLENE.gamout	Energy:    -276.7181966
C          0.50417        0.86490       -0.00000
C          1.83621        0.86488        0.00000
F          2.56314       -0.25340       -0.00000
F         -0.22273       -0.25339        0.00000
H         -0.07749        1.79017       -0.00000
H          2.41786        1.79015        0.00000
