42
CLOZAPINE.gamout	Energy:   -1375.1271503
Cl         5.58962        2.19158       -1.67279
N         -1.62866        2.62681       -0.58756
N         -2.85528        4.51185        1.19568
N          0.63473        2.25175       -0.45782
N          0.84644       -0.22822        1.02577
C         -1.38445        4.05988       -0.71146
C         -2.93350        2.35883        0.01014
C         -1.54138        4.77477        0.62888
C         -3.08181        3.08626        1.34851
C         -0.55537        1.75412       -0.50912
C         -0.88441        0.29733       -0.60878
C         -3.09630        5.25154        2.41344
C         -0.21690       -0.64506        0.20097
C          1.81414        1.53228       -0.38778
C          1.97181        0.34824        0.37594
C         -1.87093       -0.15297       -1.49961
C         -0.61955       -1.98797        0.16812
C         -2.24834       -1.49338       -1.54701
C          2.95151        2.07698       -1.01103
C         -1.63791       -2.40823       -0.68547
C          3.23618       -0.23201        0.50218
C          4.20003        1.47704       -0.87794
C          4.36129        0.32538       -0.10868
H         -0.37428        4.20595       -1.10561
H         -2.12333        4.46912       -1.42274
H         -3.72145        2.71519       -0.67773
H         -3.07335        1.28459        0.16277
H         -0.72209        4.45287        1.31247
H         -1.43110        5.86078        0.47550
H         -4.10214        2.92470        1.73196
H         -2.37564        2.63124        2.08459
H         -4.12630        5.07880        2.76476
H         -2.98182        6.33202        2.22914
H         -2.40371        4.97495        3.24239
H         -2.35194        0.57655       -2.15370
H          1.12658       -0.95013        1.68186
H         -0.10881       -2.71041        0.80970
H         -3.01996       -1.82043       -2.24587
H          2.83463        2.99728       -1.58269
H         -1.93553       -3.45960       -0.69725
H          3.34431       -1.14647        1.09434
H          5.34507       -0.13096        0.00229
