55
CORTICOSTERONE.gamout	Energy:   -1117.6684412
O         -0.01667       -2.06639        0.97280
O         -5.30304        0.57965        0.55395
O          6.37629       -0.51107       -1.26896
O         -4.25049       -1.07328       -2.43903
C         -0.97967        1.50013       -0.06194
C         -1.97970        0.32469        0.05570
C          0.41899        1.21187        0.51579
C          1.01383       -0.06640       -0.14294
C          2.46682       -0.42914        0.35698
C         -1.37917       -0.87222       -0.69173
C         -3.24027        0.98676       -0.61487
C          0.03141       -1.27411       -0.20862
C         -1.77892        2.71937        0.42345
C          1.37137        2.39393        0.28010
C         -3.21583        2.45564       -0.10645
C          3.35050        0.80009        0.17376
C         -2.31506       -0.02690        1.51908
C          2.81156        2.09713        0.71805
C          3.01616       -1.60178       -0.48891
C          2.52321       -0.81143        1.85813
C         -4.54828        0.26066       -0.34058
C          4.53073       -1.78617       -0.40415
C          4.58559        0.73867       -0.37244
C          5.27107       -0.51143       -0.75674
C         -4.90550       -0.96423       -1.19769
H         -0.83401        1.64003       -1.15071
H          0.33017        1.06287        1.60792
H          1.14859        0.20828       -1.20663
H         -1.32556       -0.62631       -1.76455
H         -2.01413       -1.76655       -0.60916
H         -3.06764        0.94692       -1.70047
H          0.42766       -1.96630       -0.96355
H         -1.36883        3.66700        0.04548
H         -1.76894        2.78457        1.52486
H          1.01516        3.29147        0.80910
H          1.36696        2.64163       -0.79741
H         -3.97642        2.60442        0.67415
H         -3.47208        3.14081       -0.92904
H         -1.41974       -0.05087        2.15856
H         -3.00131        0.69818        1.97404
H         -2.80292       -1.01075        1.58359
H          2.84359        2.04226        1.82294
H          3.47437        2.92757        0.43494
H          2.75168       -1.42714       -1.54642
H          2.51551       -2.53168       -0.18889
H          3.56856       -0.87900        2.19377
H          2.03085       -0.06225        2.49435
H          2.03148       -1.77571        2.02436
H          4.87945       -2.58427       -1.07356
H          4.84129       -2.07422        0.61733
H         -0.40028       -1.54473        1.68775
H          5.18210        1.64643       -0.49534
H         -4.62320       -1.85278       -0.60372
H         -6.00704       -0.98631       -1.27722
H         -4.67930       -0.47841       -3.06787
