79
CORTISOL_OCTANOATE.gamout	Energy:   -1580.8129083
O          2.81976       -3.08079        2.45601
O          0.47003        1.51294        1.21185
O          4.70063       -0.32560        2.92317
O          6.53854       -2.39156        2.70724
O         -5.61650       -0.51034       -1.37299
O          5.20788       -2.75220        0.93547
C          1.79252       -0.85372        2.81482
C          0.52023       -1.62354        3.23220
C         -0.79828       -0.89600        2.92753
C         -0.86424       -0.51376        1.42094
C          2.87017       -1.90405        3.25872
C          1.71681       -0.59640        1.30973
C         -2.19702        0.23147        1.01599
C          0.43284        0.12986        0.86670
C          0.83320       -2.07276        4.67078
C          2.36830       -2.33140        4.67029
C         -2.00728       -1.78037        3.27086
C          1.95967        0.45941        3.60367
C         -3.37126       -0.64372        1.43849
C         -3.34817       -1.16042        2.85374
C         -2.22616        0.43837       -0.51573
C         -2.37160        1.59597        1.72616
C          4.33566       -1.43707        3.22951
C         -3.60583        0.77304       -1.08168
C         -4.43203       -0.88352        0.63485
C         -4.64493       -0.25632       -0.68292
C          5.39426       -2.51257        3.55367
C          6.31015       -2.51749        1.39242
C          7.54357       -2.29738        0.55728
C          7.48841       -0.94309       -0.18080
C          7.67981        0.28454        0.71658
C          7.59357        1.61073       -0.05167
C          7.80781        2.86135        0.81258
C          7.69828        4.17988        0.03729
C          7.89947        5.42292        0.90647
H          0.52794       -2.53902        2.61716
H         -0.85355        0.02017        3.54118
H         -0.91711       -1.48051        0.88528
H          1.77001       -1.56155        0.78257
H          2.57921       -0.00420        0.95976
H          0.38665        0.04244       -0.23404
H          0.57226       -1.28748        5.39849
H          0.27448       -2.97448        4.95457
H          2.87279       -1.76990        5.47143
H          2.60465       -3.39570        4.80535
H         -2.03608       -1.99364        4.35115
H         -1.89116       -2.75518        2.76273
H          2.14219        0.28395        4.67259
H          2.81427        1.02773        3.22081
H          1.06797        1.08859        3.50858
H         -3.57477       -0.30869        3.52333
H         -4.16320       -1.88390        2.99850
H         -1.87111       -0.48568       -1.00461
H         -1.51755        1.23217       -0.78539
H         -1.63274        2.31597        1.36170
H         -3.38387        1.99052        1.55158
H         -2.24085        1.51124        2.81312
H          3.43786       -2.98361        1.71034
H         -3.95846        1.75585       -0.71787
H         -3.58967        0.83524       -2.17858
H          1.34533        1.85169        0.98274
H         -5.24995       -1.52460        0.97371
H          4.97665       -3.52698        3.49608
H          5.77104       -2.33217        4.57157
H          8.43771       -2.37085        1.19316
H          7.56978       -3.10991       -0.18392
H          8.26223       -0.95626       -0.96645
H          6.51847       -0.88396       -0.70538
H          8.66101        0.21168        1.22228
H          6.92573        0.28727        1.52234
H          6.60267        1.67632       -0.54042
H          8.33280        1.61064       -0.87607
H          7.07261        2.86438        1.63897
H          8.80162        2.80702        1.29681
H          8.43717        4.18180       -0.78555
H          6.70784        4.23065       -0.45231
H          7.80431        6.34544        0.31301
H          8.89821        5.43039        1.37559
H          7.15378        5.47083        1.71829
