17
COUMARIN.gamout	Energy:    -496.3832795
O         -3.52755        3.53353        0.74713
C         -2.49877        2.92757        0.88030
C         -1.32303        3.37214        1.63049
O         -2.38649        1.68086        0.27400
C         -0.20647        2.61217        1.72134
C         -0.13783        1.32520        1.07423
C          0.98353        0.47401        1.11822
C         -1.27555        0.90674        0.35442
C          0.96740       -0.75171        0.46499
C         -0.17587       -1.14944       -0.24649
C         -1.29669       -0.32547       -0.30397
H         -1.41136        4.34959        2.10555
H          0.66042        2.96366        2.28683
H          1.86950        0.79124        1.67429
H          1.84150       -1.40454        0.50447
H         -0.19023       -2.11348       -0.76097
H         -2.19657       -0.61153       -0.84984
