11
CROTONALDEHYDE.gamout	Energy:    -230.9253547
C          1.91934        1.12864        1.42462
C          2.34969        1.29786        2.68743
C          3.57829        0.64544        3.17007
C          0.69293        1.73183        0.82273
O          4.02286        0.75282        4.29070
H          2.52006        0.48467        0.76603
H          1.81042        1.92212        3.40880
H          4.09753        0.01426        2.39756
H          0.15405        2.37271        1.53648
H          0.00386        0.94262        0.47291
H          0.94913        2.33508       -0.06601
