21
CUMENE.gamout	Energy:    -349.7008083
C          1.06636        1.14692        0.91305
C          1.64832        1.87577        2.13763
C          1.17031        1.22438        3.44379
C          3.16444        1.98298        2.03148
C          4.00462        0.89259        2.30829
C          3.76224        3.17804        1.60390
C          5.39008        0.99439        2.16571
C          5.14779        3.28570        1.45697
C          5.96923        2.19217        1.73879
H          1.42335        0.10403        0.86902
H          1.36592        1.63932       -0.02504
H         -0.03513        1.12536        0.95312
H          1.25807        2.90856        2.12068
H          0.06972        1.23466        3.49829
H          1.55971        1.75433        4.32715
H          1.48941        0.17136        3.51516
H          3.57451       -0.05425        2.64342
H          3.12952        4.04281        1.38302
H          6.02154        0.13119        2.39109
H          5.58544        4.22945        1.12281
H          7.05334        2.27261        1.62793
