47
CURCUMIN.gamout	Energy:   -1261.9305890
O          8.00196       -0.73022       -0.73622
O         -7.47424       -1.27861       -1.51033
O          7.16178       -3.18519       -0.34053
O         -8.45853       -1.10844        0.90619
O          1.94586        3.40656        0.63351
O         -0.58215        1.41600       -0.86867
C          4.44746       -0.05691        0.18475
C         -4.55600        0.23453        0.24451
C          0.02222        2.17314        1.32891
C          5.78639        0.20018       -0.19782
C         -5.34926       -0.30269       -0.79850
C          6.68928       -0.84246       -0.37176
C         -6.65050       -0.75130       -0.57642
C          4.05979       -1.39370        0.38480
C         -5.11622        0.31275        1.52851
C          3.53682        1.07002        0.35449
C         -3.19748        0.67217       -0.05667
C          6.27973       -2.18033       -0.16860
C         -7.19469       -0.66430        0.72973
C          1.46568        2.30870        0.85260
C         -0.92542        1.56413        0.29082
C          4.96153       -2.44031        0.21061
C         -6.41556       -0.13215        1.76052
C          2.23452        1.05028        0.71790
C         -2.27183        1.18810        0.78553
C          8.54069        0.54592       -0.99978
C         -7.02304       -1.39155       -2.83880
H         -0.34733        3.18142        1.57930
H         -0.02470        1.56794        2.25144
H          6.10106        1.23265       -0.35573
H         -4.92213       -0.36508       -1.79971
H          3.03536       -1.62530        0.67900
H         -4.53977        0.72198        2.35882
H          3.95536        2.06592        0.16637
H         -2.87315        0.56824       -1.09869
H          4.65982       -3.47791        0.36255
H         -6.84221       -0.06654        2.76614
H          1.70929        0.11295        0.92170
H         -2.47999        1.34386        1.84816
H          8.00399       -2.77914       -0.60460
H         -8.70891       -0.98954        1.83188
H          8.50097        1.19778       -0.10826
H          8.01186        1.04852       -1.82969
H          9.59028        0.39234       -1.28372
H         -6.13196       -2.04114       -2.92012
H         -6.78058       -0.40585       -3.27781
H         -7.84565       -1.84221       -3.41005
