28
CYCLOHEXYLBENZENE.gamout	Energy:    -466.2749959
C          3.23916        1.70621        4.48419
C          3.89125        3.06709        4.80248
C          2.41937        1.21821        5.69512
C          2.43324        1.73709        3.19729
C          4.73153        3.01593        6.08271
C          3.26169        1.16556        6.97395
C          2.81256        0.96497        2.09008
C          1.29067        2.54323        3.07188
C          3.91269        2.51757        7.27587
C          2.08073        0.99409        0.90045
C          0.55581        2.57697        1.88629
C          0.94758        1.80118        0.79253
H          4.05974        0.97994        4.33612
H          3.09801        3.82853        4.91527
H          4.51037        3.38746        3.94948
H          1.99249        0.22666        5.47531
H          1.56194        1.89791        5.85311
H          5.15378        4.01141        6.29631
H          5.59307        2.33999        5.92409
H          4.05082        0.39901        6.85814
H          2.63747        0.84299        7.82299
H          3.69838        0.32721        2.15838
H          0.96659        3.15834        3.91450
H          3.12353        3.25616        7.51157
H          4.54892        2.44441        8.17289
H          2.39906        0.38191        0.05342
H         -0.32914        3.21415        1.81762
H          0.37362        1.82569       -0.13637
