15
CYCLOPENTANE.gamout	Energy:    -196.2690616
C          1.19309        2.99186        1.04470
C          2.72296        3.02520        0.93221
C          0.84703        1.48691        1.12919
C          3.15994        1.91562        1.89701
C          2.13168        0.78616        1.66274
H          0.88523        3.50604        1.97213
H          0.68352        3.50225        0.21286
H          3.03388        2.77542       -0.09864
H          3.15576        4.00901        1.17254
H         -0.02614        1.30575        1.77528
H          0.57817        1.09529        0.13421
H          4.19910        1.58658        1.74200
H          3.09205        2.28493        2.93562
H          1.94259        0.20699        2.57992
H          2.51555        0.06902        0.91867
