23
CYCLOOCTANONE.gamout	Energy:    -387.9658777
O         -1.80826        0.47760       -1.17775
C         -1.34065       -0.02723       -0.17683
C         -0.83312       -1.45947       -0.20138
C         -1.20630        0.77880        1.10343
C          0.70761       -1.58651       -0.17825
C          0.24435        1.18933        1.44691
C          1.45416       -0.58005       -1.07912
C          1.08194        1.68219        0.24849
C          2.04011        0.65058       -0.36779
H         -1.22564       -1.89910       -1.13053
H         -1.25852       -2.01866        0.64906
H         -1.63269        0.20878        1.94617
H         -1.81930        1.68041        0.95547
H          0.94485       -2.61313       -0.49825
H          1.08655       -1.50981        0.85385
H          0.17338        1.98962        2.19934
H          0.77089        0.36235        1.95022
H          0.79404       -0.25896       -1.90351
H          2.29736       -1.10143       -1.55902
H          1.69959        2.53081        0.58276
H          0.41400        2.08814       -0.53089
H          2.73042        0.29938        0.42312
H          2.67291        1.18295       -1.09743
