30
CYCLODECANE.gamout	Energy:    -392.5352913
C          3.38850        1.63978        3.38319
C          2.32911        0.89282        2.55882
C          1.69031        1.70271        1.41492
C          1.00181        3.02163        1.84617
C          1.41165        4.27039        1.04352
C          2.91327        4.59517        1.04925
C          3.52643        5.00013        2.40675
C          5.02319        4.64415        2.54813
C          5.37045        3.29450        3.20825
C          4.68656        2.02920        2.64416
H          3.65526        1.02003        4.25717
H          2.92427        2.54221        3.81072
H          1.53064        0.55888        3.24692
H          2.76730       -0.03101        2.13843
H          0.95611        1.05491        0.90736
H          2.45858        1.91071        0.65091
H         -0.09197        2.90738        1.76453
H          1.18721        3.20889        2.91725
H          0.84085        5.13781        1.42345
H          1.09336        4.13919       -0.00700
H          3.46007        3.72863        0.64452
H          3.09881        5.40683        0.32370
H          2.96297        4.54711        3.23862
H          3.40073        6.08849        2.53645
H          5.52734        5.42825        3.13711
H          5.48892        4.68754        1.54538
H          5.15088        3.35820        4.29094
H          6.46442        3.17583        3.13987
H          5.39016        1.18168        2.70258
H          4.49438        2.16654        1.56748
