19
CYCLOHEXANETHIOL.gamout	Energy:    -633.5538995
S         -3.39236        0.32961        2.74470
C         -3.86345        1.01604        1.09358
C         -5.09748        1.90468        1.28925
C         -4.13031       -0.06891        0.04618
C         -5.56106        2.51380       -0.04081
C         -4.59010        0.54089       -1.28515
C         -5.81796        1.43597       -1.09713
H         -2.31448       -0.37648        2.32639
H         -3.02699        1.65054        0.75330
H         -5.91170        1.29400        1.72113
H         -4.87421        2.69953        2.01851
H         -3.22396       -0.67696       -0.10766
H         -4.90557       -0.75105        0.43814
H         -6.46896        3.11684        0.12310
H         -4.78639        3.21090       -0.41051
H         -4.80813       -0.26123       -2.00899
H         -3.76538        1.13640       -1.71942
H         -6.67776        0.81542       -0.78275
H         -6.10269        1.90038       -2.05528
