24
CYCLOHEXYL_ACETATE.gamout	Energy:    -463.1371956
O          0.57698       -0.38287       -0.87231
O          1.78801       -0.63240        1.02129
C         -0.58409        0.07948       -0.15126
C         -0.91305        1.49511       -0.61379
C         -1.73626       -0.88413       -0.41687
C         -2.20638        1.99648        0.03916
C         -3.02938       -0.38406        0.23619
C         -3.37190        1.03697       -0.22024
C          1.68859       -0.70143       -0.17923
C          2.79290       -1.15736       -1.10422
H         -0.33583        0.08171        0.92146
H         -1.02574        1.48526       -1.71295
H         -0.06926        2.16413       -0.38238
H         -1.46962       -1.88591       -0.04482
H         -1.87323       -0.97150       -1.50985
H         -2.44513        3.00692       -0.32984
H         -2.05197        2.09358        1.12970
H         -2.90960       -0.39285        1.33530
H         -3.85539       -1.07676        0.00953
H         -4.28126        1.39338        0.28949
H         -3.60519        1.02893       -1.30149
H          2.47539       -1.13479       -2.15385
H          3.09516       -2.17806       -0.82390
H          3.66941       -0.50712       -0.96101
