12
CYCLOBUTANE.gamout	Energy:    -156.9827346
C          1.82598        2.83265        1.05369
C          0.68614        1.79879        0.85665
C          1.72669        0.66881        1.07463
C          2.84870        1.69881        0.77921
H          1.88013        3.18375        2.09713
H          1.84224        3.71284        0.39124
H          0.30534        1.80659       -0.17776
H         -0.17500        1.84415        1.54234
H          1.66352       -0.22200        0.42955
H          1.74852        0.33485        2.12486
H          3.15291        1.67411       -0.27995
H          3.75736        1.66420        1.40113
