11
CYCLOBUTANONE.gamout	Energy:    -230.9193183
O          0.02388        1.70658        0.65953
C          1.21256        1.74126        0.80355
C          2.23557        2.88136        0.94493
C          3.36434        1.80682        0.96706
C          2.30733        0.66399        0.89146
H          2.24078        3.58976        0.10018
H          2.10982        3.46057        1.87523
H          4.03367        1.85023        0.09595
H          3.97900        1.80473        1.87835
H          2.35663       -0.00146        0.01378
H          2.22098        0.03365        1.79259
