22
CYCLOOCTENE.gamout	Energy:    -312.8143682
C          3.87162        1.68027        2.40162
C          2.63902        1.02284        1.74498
C          4.70638        2.61641        1.51510
C          1.27214        1.67699        2.01191
C          1.00533        3.05306        1.36681
C          1.75819        4.21221        1.97600
C          3.03448        4.52952        1.71769
C          3.93065        3.74496        0.80112
H          4.55203        0.88699        2.75407
H          3.55194        2.21703        3.31134
H          2.79644        0.92871        0.65375
H          2.56687       -0.01435        2.11244
H          5.50269        3.05950        2.13920
H          5.22315        2.02237        0.74060
H          0.49481        0.98465        1.64551
H          1.11725        1.75304        3.10394
H          1.22530        2.98147        0.28606
H         -0.07590        3.25784        1.43749
H          1.20860        4.82425        2.70059
H          3.47717        5.38450        2.24249
H          3.33546        3.30875       -0.01901
H          4.66195        4.41640        0.32108
