9
CYCLOPROPANE.gamout	Energy:    -117.7236932
C         -0.02606        0.86943       -0.00000
C         -0.74022       -0.45730        0.00000
C          0.76620       -0.41223       -0.00000
H         -0.04345        1.46732       -0.91667
H         -0.04346        1.46730        0.91667
H         -1.24791       -0.77108        0.91728
H         -1.24790       -0.77107       -0.91727
H          1.29184       -0.69509       -0.91722
H          1.29183       -0.69509        0.91722
