16
CYCLOPENTANETHIOL.gamout	Energy:    -594.2873877
S          0.01716        2.66995        1.64655
C          1.76845        2.12917        1.74695
C          2.78444        2.97853        0.97152
C          4.07342        2.12862        0.98807
C          3.60803        0.65161        1.17656
C          2.06714        0.70386        1.26241
H         -0.09886        2.54403        0.30222
H          1.98445        2.19855        2.82825
H          2.42013        3.11199       -0.06236
H          2.91425        3.98217        1.40241
H          4.66205        2.26509        0.06754
H          4.72422        2.43541        1.82295
H          3.94711        0.00019        0.35611
H          4.03112        0.23198        2.10366
H          1.61696        0.56749        0.26344
H          1.63799       -0.06564        1.92039
