33
CYCLOBARBITAL.gamout	Energy:    -801.0941529
O          0.55126        0.53197        2.41490
O          0.57448        0.63208       -2.36502
O          3.44352       -1.98045       -0.01543
N          1.96262       -0.71210        1.16987
N          1.94915       -0.69062       -1.16023
C          0.24568        0.70014        0.02762
C         -1.19469        0.14269        0.00716
C         -1.33838       -1.35868        0.18043
C         -2.70258       -1.88720       -0.27481
C          0.31766        2.24946        0.05741
C         -3.83595       -1.01859        0.26527
C         -3.68772        0.42311       -0.22394
C         -2.26901        0.92474       -0.17408
C          0.91402        0.18590        1.31415
C          0.91755        0.23223       -1.27671
C          1.73583        2.82346        0.10546
C          2.52627       -1.19457       -0.00281
H         -0.54336       -1.88318       -0.37783
H         -1.17253       -1.61904        1.24335
H         -2.74020       -1.89793       -1.37911
H         -2.82093       -2.93067        0.05446
H         -0.25392        2.58402        0.93447
H         -0.19431        2.61548       -0.84295
H         -3.81736       -1.03821        1.37002
H         -4.81440       -1.42224       -0.03748
H         -4.33364        1.09686        0.36536
H         -4.04791        0.51418       -1.26747
H         -2.14424        1.99812       -0.32258
H          2.27894        2.51739        1.01408
H          2.33348        2.52468       -0.77105
H          1.69429        3.92289        0.10929
H          2.38353       -1.05549        2.02884
H          2.36953       -1.00936       -2.02906
