25
CYCLOOCTANOL.gamout	Energy:    -389.1590925
C         -1.43966       -0.01694       -0.17583
C         -0.83236       -1.42138       -0.26245
C         -1.19963        0.78372        1.10800
C          0.69886       -1.54078       -0.20860
C          1.48332       -0.56821       -1.10222
C          2.05395        0.65969       -0.37406
O          2.56562       -1.31978       -1.64475
C          1.10082        1.68339        0.25910
C          0.25208        1.17421        1.44192
H         -2.53083       -0.11698       -0.30607
H         -1.10449        0.57721       -1.04393
H         -1.25739       -2.05491        0.53616
H         -1.17782       -1.86794       -1.21204
H         -1.62348        0.23453        1.96774
H         -1.79433        1.71122        1.02638
H          1.06747       -1.46255        0.82661
H          0.97905       -2.54888       -0.54855
H          0.82312       -0.22629       -1.92828
H          2.74453        0.27549        0.39890
H          2.68634        1.19986       -1.10312
H          3.11266       -0.72236       -2.17159
H          0.44816        2.12474       -0.51543
H          1.72872        2.51665        0.61335
H          0.77705        0.33415        1.92513
H          0.20646        1.96208        2.21063
