19
CYCLOHEXANOL.gamout	Energy:    -310.6640507
C         -0.99725       -0.00967        0.32499
C         -0.27367       -1.25634       -0.17256
C          1.20869       -1.24497        0.21332
C          1.90757        0.02625       -0.28029
C          1.18216        1.28304        0.21127
C         -0.29985        1.25772       -0.17912
O         -2.34173       -0.09443       -0.11592
H         -0.95659       -0.00740        1.43722
H         -0.78069       -2.15003        0.22376
H         -0.38424       -1.29070       -1.27150
H          1.30204       -1.30645        1.31362
H          1.70705       -2.14092       -0.18980
H          2.95963        0.03852        0.04867
H          1.92519        0.02575       -1.38604
H          1.26855        1.34340        1.31234
H          1.66510        2.19030       -0.18649
H         -0.40936        1.28952       -1.27830
H         -0.81607        2.14938        0.21889
H         -2.81045        0.69056        0.19607
