17
CYCLOHEXANONE.gamout	Energy:    -309.4612733
O          4.40414        0.59251        1.22777
C          3.45438        1.32643        1.38425
C          2.06879        1.01834        0.84869
C          3.57006        2.65169        2.13584
C          0.96358        1.17881        1.91447
C          2.23213        3.37979        2.29458
C          1.16223        2.41977        2.82552
H          1.88458        1.73325        0.02516
H          2.07714        0.01125        0.40953
H          4.01308        2.42237        3.12137
H          4.31778        3.26857        1.60897
H         -0.00758        1.23264        1.39821
H          0.92827        0.26816        2.53289
H          2.34847        4.23538        2.97887
H          1.91328        3.80711        1.32738
H          0.20694        2.95182        2.95062
H          1.46425        2.09479        3.83638
