19
CYCLOHEXANONE_OXIME.gamout	Energy:    -364.6959222
C         -3.90074        1.03961        1.12989
C         -5.09908        1.94614        1.23914
C         -4.12728       -0.05615        0.07453
C         -4.56391        0.54331       -1.26578
C         -5.81672        1.40946       -1.10553
C         -5.61967        2.51830       -0.05481
N         -5.59065        2.13443        2.40673
O         -6.69543        2.98600        2.41147
H         -3.67978        0.61474        2.11912
H         -3.02568        1.64711        0.82756
H         -3.20714       -0.64904       -0.04957
H         -4.90673       -0.75027        0.43756
H         -4.75039       -0.25810       -1.99880
H         -3.74154        1.15897       -1.67701
H         -6.09748        1.86161       -2.07031
H         -6.66430        0.77118       -0.79722
H         -6.54907        3.07137        0.12377
H         -4.87213        3.24161       -0.43299
H         -6.93985        3.00205        3.34528
