16
CYCLOHEXENE.gamout	Energy:    -234.3127423
C          0.72317        2.16978        3.00885
C          1.96132        2.01211        3.89767
C          1.10112        2.71023        1.62429
C          2.96778        1.03709        3.27496
C          2.32410        2.03128        1.06309
C          3.15010        1.27422        1.79758
H         -0.01522        2.83296        3.48678
H          0.23493        1.18458        2.89533
H          1.67420        1.66939        4.90466
H          2.44039        2.99998        4.02618
H          1.27974        3.80312        1.67374
H          0.25467        2.59269        0.92436
H          2.64103       -0.00924        3.43938
H          3.94272        1.11478        3.78820
H          2.53224        2.17508       -0.00255
H          4.00880        0.79406        1.31640
