21
CYCLOHEPTANE.gamout	Energy:    -274.7822298
C          2.05434        0.98571        1.83009
C          0.96421        1.98541        1.41213
C          0.97509        3.35455        2.11682
C          3.39092        1.18985        1.10296
C          2.34985        3.97432        2.42715
C          4.18758        2.44276        1.48116
C          3.44795        3.78306        1.36948
H          1.69797       -0.03291        1.60225
H          2.20477        1.01287        2.92555
H         -0.02788        1.53254        1.57416
H          1.04261        2.13146        0.31964
H          0.42096        3.27634        3.06856
H          0.39226        4.05689        1.49531
H          3.18994        1.20321        0.01491
H          4.03363        0.31010        1.27880
H          2.72819        3.57072        3.38362
H          2.20043        5.05196        2.60557
H          5.09004        2.47881        0.84730
H          4.55192        2.33899        2.52085
H          4.19093        4.58857        1.49163
H          3.03160        3.90917        0.35245
