24
CYCLOOCTANE.gamout	Energy:    -314.0288957
C          1.03394        2.72416        1.36728
C          1.42012        1.26768        1.68704
C          1.56942        3.77165        2.36493
C          2.85409        0.99282        2.16842
C          2.66534        4.69593        1.80252
C          4.01700        1.46440        1.27892
C          3.75618        4.06570        0.92094
C          4.56059        2.88924        1.50010
H         -0.06625        2.77431        1.32087
H          1.37033        2.98054        0.34879
H          1.22096        0.65216        0.79166
H          0.73868        0.88326        2.46753
H          1.94125        3.26372        3.27047
H          0.74454        4.41109        2.71911
H          2.93512       -0.10065        2.29233
H          2.99627        1.40384        3.18383
H          3.14873        5.21679        2.64799
H          2.18504        5.48935        1.20191
H          3.75730        1.33153        0.21141
H          4.86101        0.77770        1.45937
H          4.46200        4.87721        0.67380
H          3.32881        3.75754       -0.05017
H          5.55973        2.91882        1.03393
H          4.74033        3.04783        2.58056
