20
CYCLOHEPTANONE.gamout	Energy:    -348.7141106
C         -3.13703        0.19745       -0.11638
C         -3.86737        1.41963        0.44630
C         -3.61005       -0.24537       -1.51204
C         -5.36688        1.25286        0.71096
C         -5.91388       -0.16759        0.74848
C         -6.00538       -0.81813       -0.66278
C         -5.12633       -0.16938       -1.74154
O         -6.07444        2.21943        0.89021
H         -2.05673        0.41221       -0.15373
H         -3.24090       -0.64025        0.59353
H         -3.75495        2.30679       -0.19910
H         -3.42228        1.70468        1.41744
H         -3.11965        0.37660       -2.28060
H         -3.25973       -1.27699       -1.68966
H         -6.90581       -0.12119        1.21712
H         -5.26301       -0.77183        1.40101
H         -7.05048       -0.75533       -1.00451
H         -5.77087       -1.89310       -0.58488
H         -5.42839        0.88782       -1.85124
H         -5.35741       -0.63850       -2.71165
