21
CYCLOHEXYL_FORMATE.gamout	Energy:    -423.8643137
O          0.54099        1.69178       -0.72606
O          2.23606        3.09989       -0.35476
C         -0.45805        0.85226       -0.12655
C         -1.83854        1.31460       -0.58155
C         -0.18891       -0.59960       -0.51257
C         -2.93595        0.38630       -0.04979
C         -1.28636       -1.52640        0.02085
C         -2.67448       -1.07224       -0.43859
C          1.37378        2.38617        0.06431
H         -0.38643        0.95340        0.97434
H         -1.84927        1.32456       -1.68570
H         -2.00514        2.35296       -0.25326
H          0.80171       -0.90124       -0.13672
H         -0.14231       -0.65663       -1.61435
H         -3.91684        0.71718       -0.42511
H         -2.98241        0.46673        1.05229
H         -1.25281       -1.53582        1.12626
H         -1.08804       -2.56066       -0.30179
H         -3.45055       -1.72473       -0.00854
H         -2.74897       -1.17755       -1.53666
H          1.16904        2.22193        1.15256
