19
CYCLOHEPTENE.gamout	Energy:    -273.5604986
C          1.54223        0.89116        1.94208
C          0.65295        2.14245        1.91200
C          1.40146        3.48277        1.88103
C          2.75967        0.97444        2.87433
C          2.62195        3.53108        0.95130
C          3.90746        1.79738        2.33664
C          3.85108        2.83767        1.49160
H          0.92359        0.02534        2.23112
H          1.91135        0.66984        0.92532
H         -0.01106        2.06966        1.03253
H         -0.01436        2.14108        2.79200
H          0.69148        4.27572        1.59212
H          1.74286        3.74409        2.89809
H          2.45145        1.34336        3.87333
H          3.13650       -0.04668        3.05426
H          2.35748        3.13144       -0.04855
H          2.88703        4.58679        0.77175
H          4.90418        1.47349        2.65707
H          4.80708        3.26864        1.17275
