13
D-ALANINE.gamout	Energy:    -323.3318822
O          1.66793       -0.25326       -1.30170
O          1.36807        1.87580       -0.66635
N         -0.81372        2.22100       -2.41123
C         -0.13159        0.94193       -2.34035
C         -1.12094       -0.18941       -2.03778
C          1.03061        0.93549       -1.34316
H          0.32559        0.73271       -3.32604
H         -1.93564       -0.16357       -2.77475
H         -0.62765       -1.17053       -2.07224
H         -1.56471       -0.06419       -1.03518
H         -1.20503        2.43795       -1.49193
H         -0.13051        2.96080       -2.57957
H          2.39037       -0.16485       -0.65527
