29
DBA+1.gamout	Energy:    -370.8914537
C         -2.07629        1.40269       -0.39341
C         -0.36989        2.41032       -2.07034
N         -0.91107        1.19540       -1.33859
C         -3.32600        1.91485       -1.09588
H         -1.72627        2.08543        0.39179
H         -2.25566        0.41996        0.06910
C         -4.55756        1.91524       -0.17431
C         -4.45308        2.85022        1.03168
H         -4.76059        0.88300        0.16239
H         -5.42502        2.20705       -0.78761
H         -4.25507        3.89053        0.72290
H         -3.66087        2.54826        1.73791
C          0.20712        3.46078       -1.13222
H          0.40089        2.01719       -2.75057
H         -1.19174        2.80529       -2.68204
C          1.35262        2.96847       -0.23874
C          1.95983        4.08405        0.61385
H          2.13800        2.51409       -0.87012
H          0.99633        2.16616        0.43840
H          1.20696        4.53508        1.28033
H          2.37243        4.88545       -0.01939
H         -3.15948        2.93778       -1.47405
H         -0.59295        3.91417       -0.52164
H         -3.53773        1.27667       -1.97256
H          0.57155        4.27492       -1.78062
H         -5.39591        2.85140        1.59856
H          2.77609        3.69910        1.24224
H         -1.17571        0.49076       -2.03905
H         -0.13801        0.77919       -0.80275
