14
DECAFLUOROBUTANE.gamout	Energy:   -1149.5269318
C         51.98863       37.05251        0.08990
C         50.67908       36.20830        0.08945
C         50.89890       34.67564       -0.07252
F         49.89131       36.61608       -0.92265
F         50.04247       36.41134        1.25324
C         51.77035       38.58460       -0.07263
F         52.62460       36.84934        1.25413
F         52.77605       36.64433       -0.92168
F         49.74773       34.04774        0.16054
F         51.81063       34.24376        0.79826
F         51.30201       34.39153       -1.30703
F         52.92198       39.21186        0.16045
F         51.36795       38.86841       -1.30743
F         50.85878       39.01711        0.79769
