24
DFRUCTOSE.gamout	Energy:    -686.3162114
C         -5.76611       -1.63526       -0.00476
C         -6.42527       -2.99920        0.17065
C         -7.80582       -2.79488        0.77513
C         -8.62371       -1.82515       -0.07069
C         -7.83855       -0.51900       -0.35814
O         -6.55854       -0.79848       -0.83551
O         -9.81491       -1.54603        0.64801
O         -8.43223       -4.05653        0.88555
O         -5.61091       -3.78742        1.00262
C         -8.51123        0.32043       -1.44835
O         -7.78460        0.25435        0.82669
O         -9.80024        0.74281       -1.02805
H         -4.79058       -1.73838       -0.49694
H         -5.61449       -1.17134        0.98447
H         -6.55471       -3.46643       -0.82819
H         -7.66296       -2.34730        1.78014
H         -8.84335       -2.31559       -1.03718
H        -10.31937       -0.91710        0.10105
H         -9.31374       -3.91352        1.25844
H         -6.12771       -4.57237        1.23683
H         -7.84607        1.17070       -1.67935
H         -8.64178       -0.27481       -2.36380
H         -8.42812       -0.13572        1.44047
H         -9.65135        1.34301       -0.28133
