24
DGLUCOSE.gamout	Energy:    -686.3099437
O          1.08281        0.24826       -0.09802
O          2.27544       -2.32719       -0.08779
O          4.68237       -2.51551       -1.60558
O          6.35183       -0.23458       -1.45058
O          3.06811        1.17928       -0.75932
O          4.54589        3.53341       -0.71992
C          2.46247        0.10236       -0.07680
C          2.79641       -1.21335       -0.77716
C          4.30504       -1.38109       -0.85368
C          4.94662       -0.15916       -1.50097
C          4.49542        1.11074       -0.77294
C          4.98079        2.39581       -1.42392
H          0.84252        1.01272        0.44262
H          1.31764       -2.20453       -0.02955
H          4.22950       -3.27893       -1.21949
H          6.59551       -1.11311       -1.77783
H          3.58403        3.45494       -0.64380
H          2.85188        0.06865        0.96632
H          2.38875       -1.14333       -1.80523
H          4.68998       -1.46012        0.18454
H          4.58460       -0.10547       -2.54885
H          4.87289        1.07324        0.26886
H          6.08048        2.39697       -1.42896
H          4.63914        2.40602       -2.48044
