22
DI-N-PROPYLDISULFIDE.gamout	Energy:   -1032.7695685
C          0.31042        0.37497       -0.66409
C          1.24532        1.01331        0.36700
C          1.16870        2.54108        0.35577
S          2.32306        3.22879        1.62342
S          1.88357        5.26281        1.62139
C          3.03818        5.95067        0.35452
C          2.96067        7.47809        0.36765
C          3.89539        8.11690       -0.66313
H          0.37515       -0.72437       -0.63154
H         -0.74066        0.65287       -0.47851
H          0.56294        0.69358       -1.68931
H          2.28558        0.69781        0.17153
H          0.99559        0.64483        1.37732
H          0.15320        2.89036        0.59871
H          1.44239        2.93781       -0.63533
H          4.05370        5.60147        0.59745
H          2.76489        5.55498       -0.63709
H          1.92028        7.79330        0.17246
H          3.21043        7.84566        1.37826
H          3.83126        9.21624       -0.63004
H          4.94638        7.83843       -0.47795
H          3.64243        7.79901       -1.68845
