51
DI-N-OCTYL_ETHER.gamout	Energy:    -704.4126856
C         -0.41796       -0.03176       -0.00018
C          0.97330        0.60433       -0.00024
C          0.94588        2.13754       -0.00007
C          2.33360        2.78999       -0.00011
C          2.30363        4.32501        0.00002
C          3.69107        4.97968        0.00001
C          3.65664        6.51082        0.00019
C          6.13563        9.22852        0.00025
O          4.91142        8.54035        0.00031
C          5.87101       10.72602        0.00024
C          5.04140        7.14150        0.00016
C          8.24582       13.88018       -0.00006
C          6.94155       13.07004        0.00008
C          8.04748       15.40098       -0.00009
C          7.16034       11.55196        0.00011
C          9.15735       17.71420       -0.00030
C          9.35827       16.19785       -0.00031
H         -0.36008       -1.13201       -0.00032
H         -0.99793        0.27043        0.88855
H         -0.99812        0.27067       -0.88870
H          1.53979        0.25119       -0.88178
H          1.54000        0.25098        0.88109
H          0.37703        2.48860        0.88192
H          0.37687        2.48882       -0.88188
H          2.90137        2.43740       -0.88208
H          2.90157        2.43728        0.88169
H          1.73572        4.67685        0.88186
H          1.73560        4.67707       -0.88167
H          4.25882        4.62816       -0.88217
H          4.25897        4.62808        0.88207
H          3.10828        6.88287        0.88370
H          3.10821        6.88320       -0.88313
H          6.74079        8.94530        0.89002
H          6.74070        8.94529       -0.88958
H          5.25501       10.97016       -0.88327
H          5.25511       10.97021        0.88381
H          5.61810        6.80500       -0.88985
H          5.61832        6.80487        0.88998
H          8.84962       13.59310        0.88162
H          8.84953       13.59305       -0.88180
H          6.33619       13.35247       -0.88168
H          6.33637       13.35261        0.88194
H          7.44603       15.69279       -0.88189
H          7.44626       15.69291        0.88183
H          7.76742       11.27338        0.88196
H          7.76725       11.27325       -0.88184
H         10.12145       18.24740       -0.00046
H          8.59417       18.04707       -0.88886
H          8.59442       18.04716        0.88839
H          9.95903       15.90618        0.88100
H          9.95883       15.90615       -0.88175
