33
DI-N-PENTYL_ETHER.gamout	Energy:    -468.8752499
O         -0.14518       -0.20933       -0.00001
C          1.68906       -1.72141        0.00000
C         -2.19957        0.99727       -0.00004
C          3.20682       -1.92347       -0.00002
C         -2.88897        2.36420       -0.00002
C          1.25904       -0.26172        0.00002
C         -0.68049        1.08901       -0.00003
C          3.62632       -3.39795       -0.00002
C         -4.42055        2.28830        0.00005
C          5.14197       -3.61128        0.00004
C         -5.10241        3.65859        0.00002
H          1.23844       -2.20877        0.88273
H          1.23837       -2.20873       -0.88271
H         -2.50959        0.41138       -0.88326
H         -2.50956        0.41138        0.88319
H          3.64717       -1.42165       -0.88248
H          3.64716       -1.42162        0.88244
H         -2.55524        2.94276       -0.88215
H         -2.55515        2.94279        0.88206
H          1.67025        0.26397       -0.89015
H          1.67020        0.26399        0.89019
H         -0.32909        1.65783       -0.88944
H         -0.32909        1.65782        0.88938
H          3.18376       -3.89817        0.88100
H          3.18385       -3.89820       -0.88108
H         -4.75445        1.71015       -0.88112
H         -4.75446        1.71020        0.88126
H          5.39409       -4.68338        0.00002
H          5.61306       -3.15822       -0.88902
H          5.61304       -3.15829        0.88915
H         -6.19968        3.56202        0.00001
H         -4.81949        4.24788       -0.88891
H         -4.81954        4.24795        0.88892
