21
DI-N-PROPYL_ETHER.gamout	Energy:    -311.8490593
C          1.75650        2.35592        4.47161
O          1.77420        1.53293        3.32391
C          1.16638        2.08203        2.17490
C          2.82368        3.45381        4.47809
C          1.17965        1.04457        1.06263
C          4.25292        2.91368        4.44574
C          2.58543        0.62300        0.63687
H          0.75176        2.80919        4.60069
H          1.92267        1.67900        5.32760
H          0.12188        2.38011        2.40517
H          1.69679        2.99838        1.84016
H          2.65979        4.13792        3.62616
H          2.66716        4.06771        5.38391
H          0.60841        0.16325        1.40354
H          0.62999        1.46312        0.20109
H          4.99266        3.72939        4.43818
H          4.41889        2.29455        3.55010
H          4.45946        2.28078        5.32592
H          2.55040       -0.13335       -0.16255
H          3.16443        1.48409        0.26038
H          3.13686        0.19678        1.48852
