23
DI-N-PROPYL_SULFONE.gamout	Energy:    -784.9498672
C         -0.02373        0.42094       -0.01763
C          1.29334        1.19893       -0.01180
C          1.07533        2.71277       -0.00693
S          2.68391        3.57047       -0.00028
C          2.26649        5.34401        0.00599
O          3.34587        3.25935        1.27921
O          3.35141        3.26977       -1.27930
C          3.54307        6.18432        0.01275
C          3.25010        7.68514        0.01864
H          0.16527       -0.66383       -0.02122
H         -0.63453        0.64940        0.87199
H         -0.63001        0.65626       -0.90852
H          1.89700        0.93647       -0.89564
H          1.89325        0.93010        0.87267
H          0.53343        3.04961        0.89141
H          0.53765        3.05627       -0.90530
H          1.65534        5.52587       -0.89298
H          1.65147        5.51831        0.90385
H          4.13848        5.90611        0.89753
H          4.14345        5.91437       -0.87129
H          4.18687        8.26405        0.02436
H          2.67588        7.99096       -0.87199
H          2.67024        7.98288        0.90839
