27
DI-N-BUTYL_SULFIDE.gamout	Energy:    -713.2567108
S         67.97473        9.87389       -0.00002
C         66.36170        9.00530        0.00004
C         69.12626        8.44923       -0.00007
C         70.57288        8.94510       -0.00002
C         71.60396        7.81199       -0.00003
C         73.04827        8.31498        0.00006
C         65.21971       10.02323        0.00000
C         63.82967        9.37729        0.00005
C         62.69230       10.40041       -0.00002
H         66.30065        8.35632       -0.89082
H         66.30065        8.35642        0.89098
H         68.93026        7.82715        0.89072
H         68.93030        7.82723       -0.89091
H         70.73189        9.59036       -0.88294
H         70.73186        9.59034        0.88293
H         71.43761        7.16618        0.88175
H         71.43768        7.16628       -0.88191
H         73.76655        7.48024        0.00002
H         73.25791        8.93442       -0.88864
H         73.25787        8.93427        0.88889
H         65.32354       10.67886        0.88314
H         65.32352       10.67880       -0.88319
H         63.73333        8.71806       -0.88197
H         63.73335        8.71818        0.88218
H         61.70774        9.90687        0.00003
H         62.73886       11.05189        0.88897
H         62.73882       11.05177       -0.88910
