34
DI-N-BUTYL_ACETAL.gamout	Energy:    -544.0040827
O        103.57080       29.32888        0.36672
C        102.42937       29.87790       -0.27183
C        104.62306       28.91732       -0.47692
O        101.33928       29.77434        0.57858
C        102.60630       31.35084       -0.60266
C        105.67169       28.19477        0.35773
C        100.92479       28.46080        0.92478
C        106.87731       27.72482       -0.45975
C        101.34196       28.08107        2.34290
C        107.93226       26.99943        0.37710
C        100.83075       26.70154        2.76149
C        101.22894       26.30740        4.18443
H        102.24875       29.28926       -1.20367
H        104.23964       28.24721       -1.27672
H        105.08735       29.78555       -0.98979
H        101.70317       31.73881       -1.09707
H        103.46604       31.50786       -1.27105
H        102.76952       31.91187        0.32970
H        105.99971       28.87451        1.16370
H        105.19022       27.33455        0.85612
H         99.82301       28.43590        0.83739
H        101.32614       27.72846        0.19827
H        106.53350       27.05847       -1.27226
H        107.34084       28.59502       -0.95953
H        102.44179       28.12173        2.40099
H        100.96175       28.85542        3.03316
H        108.78434       26.67946       -0.24292
H        108.32787       27.64833        1.17681
H        107.51458       26.09958        0.85949
H         99.72884       26.67441        2.66894
H        101.21044       25.94281        2.05193
H        100.84693       25.30824        4.44691
H        102.32531       26.28632        4.30497
H        100.83154       27.02094        4.92615
