34
DI-N-AMYLAMINE.gamout	Energy:    -449.0257634
C        104.18500        9.99249        0.06449
N        102.98375        9.17548        0.03533
C        103.20764        7.74030        0.06489
C        103.84324       11.48258        0.02709
C        101.88733        6.96895        0.02386
C        105.06231       12.40757       -0.00154
C        102.05027        5.44615       -0.00084
C        104.70526       13.89781       -0.03164
C        100.72043        4.68397       -0.03433
C        105.91980       14.82712       -0.06602
C        100.88015        3.16225       -0.06358
H        104.83379        9.78061        0.94851
H        104.79478        9.73342       -0.82147
H        102.36938        9.44164        0.80587
H        103.81590        7.46903       -0.81860
H        103.80331        7.41063        0.95014
H        103.20322       11.66538       -0.85446
H        103.21733       11.72913        0.90720
H        101.27586        7.25584        0.90164
H        101.31915        7.30659       -0.86080
H        105.70175       12.20437        0.87864
H        105.68318       12.16448       -0.88471
H        102.65568        5.15832       -0.88098
H        102.63315        5.12288        0.88220
H        104.06254       14.09802       -0.90917
H        104.08311       14.13915        0.85049
H        100.11499        4.97370        0.84454
H        100.13866        5.01088       -0.91591
H        105.61370       15.88525       -0.08548
H        106.56334       14.68456        0.81920
H        106.54321       14.64646       -0.95866
H         99.90142        2.65687       -0.08712
H        101.44531        2.83324       -0.95229
H        101.42159        2.79668        0.82568
