28
DI-N-BUTYLAMINE.gamout	Energy:    -370.5132233
C         -0.11841       10.10407        0.03782
C          1.15209        9.25226        0.01721
C          2.44085       10.07716       -0.01532
C          3.71495        9.23268       -0.04058
N          4.90764       10.06201       -0.01878
C          6.16347        9.33284       -0.03904
C          7.36460       10.27845       -0.01506
C          8.71616        9.56144        0.01895
C          9.91209       10.51524        0.03608
H         -1.02330        9.47621        0.06518
H         -0.14483       10.76426        0.92137
H         -0.18672       10.74658       -0.85655
H          1.12764        8.57547       -0.85666
H          1.16672        8.59290        0.90452
H          2.48748       10.74747        0.86115
H          2.42798       10.73992       -0.90266
H          3.68300        8.54080       -0.91660
H          3.73553        8.57808        0.85107
H          4.88079       10.71995       -0.79883
H          6.19667        8.68014        0.85363
H          6.25436        8.64430       -0.91360
H          7.32281       10.93780       -0.90401
H          7.26312       10.94517        0.85941
H          8.75638        8.90616        0.90840
H          8.79574        8.88613       -0.85265
H         10.86544        9.96437        0.06477
H          9.92642       11.15826       -0.86046
H          9.88345       11.17813        0.91747
