22
DI-N-PROPYLAMINE.gamout	Energy:    -292.0009177
C          0.02326       -0.15570       -0.01995
C          1.30241        0.68071       -0.00160
C          1.04309        2.18683        0.03109
N          2.28134        2.94694        0.00194
C          2.11602        4.39046        0.02983
C          3.46108        5.11573       -0.00278
C          3.32956        6.63893       -0.01942
H          0.24764       -1.23405       -0.03997
H         -0.60020        0.03728        0.86962
H         -0.59011        0.07199       -0.90816
H          1.92316        0.45540       -0.88594
H          1.91475        0.40071        0.87665
H          0.40451        2.43233        0.91392
H          0.44456        2.47277       -0.85430
H          2.87641        2.65719        0.77933
H          1.52188        4.68661       -0.85523
H          1.52921        4.74390        0.91208
H          4.05815        4.80593        0.87595
H          4.02166        4.76663       -0.88695
H          4.31701        7.12633       -0.03778
H          2.77274        6.98264       -0.90742
H          2.79263        7.00782        0.87083
