27
DI-SEC-BUTYL_ETHER.gamout	Energy:    -390.3660484
O         51.94141       29.47014       -0.00580
C         50.67863       28.86253        0.23602
C         53.04327       28.60274       -0.24042
C         50.51804       28.53768        1.72955
C         49.61935       29.82423       -0.28891
C         53.13803       28.25277       -1.73427
C         54.28333       29.30975        0.29244
C         49.26314       27.73717        2.08144
C         54.19980       27.20789       -2.08153
H         50.60552       27.91520       -0.33838
H         52.90581       27.65911        0.32820
H         51.40982       27.97442        2.05392
H         50.54036       29.48953        2.29018
H         48.60331       29.42342       -0.15415
H         49.77801       30.01576       -1.36061
H         49.68677       30.78864        0.24128
H         52.14912       27.88611       -2.05958
H         53.31519       29.18779       -2.29503
H         55.18654       28.69292        0.17051
H         54.16085       29.53755        1.36184
H         54.43548       30.26130       -0.24281
H         49.24474       27.48045        3.15248
H         48.33909       28.29719        1.86502
H         49.21726       26.79099        1.51504
H         54.16419       26.94720       -3.15114
H         55.22000       27.56478       -1.86679
H         54.04743       26.27672       -1.50926
