28
DI-TERT-BUTYLPEROXIDE.gamout	Energy:    -465.4222818
O         -0.33863        0.55237        0.13413
O          0.24444       -0.52068        0.93057
C         -1.70783        0.21029       -0.13253
C          1.66799       -0.32986        0.95457
C         -1.79079       -1.07335       -0.96257
C         -2.48961        0.08135        1.17785
C         -2.19047        1.41853       -0.93700
C          2.13194       -1.48324        1.84611
C          2.25370       -0.45290       -0.45372
C          2.01262        1.02088        1.58865
H         -1.37895       -1.92385       -0.40235
H         -2.83742       -1.30040       -1.22163
H         -1.21801       -0.96423       -1.89643
H         -2.39318        1.00257        1.77288
H         -2.10942       -0.75540        1.77951
H         -3.55811       -0.09190        0.97376
H         -1.60587        1.52910       -1.86269
H         -3.25058        1.29532       -1.20747
H         -2.08399        2.34142       -0.34765
H          1.84788       -2.45136        1.40682
H          3.22697       -1.45938        1.95793
H          1.67554       -1.40780        2.84415
H          1.86405        0.34051       -1.10602
H          1.98967       -1.42537       -0.89720
H          3.35222       -0.37291       -0.42401
H          1.56134        1.09755        2.58976
H          3.10400        1.13168        1.68961
H          1.63276        1.84970        0.97619
