27
DI-TERT-BUTYL_SULFIDE.gamout	Energy:    -713.2506160
S          0.65595       -0.70301       -2.91107
C         -0.26433       -1.30941       -4.43584
C          2.40267       -1.38082       -2.75101
C          0.53374       -1.16357       -5.73417
C         -1.47522       -0.36088       -4.46683
C         -0.75513       -2.75161       -4.26302
C          3.36452       -0.70777       -3.73673
C          2.48548       -2.90457       -2.86834
C          2.77056       -0.95814       -1.31805
H          0.90064       -0.13536       -5.86960
H          1.39310       -1.84871       -5.76831
H         -0.11309       -1.41237       -6.59421
H         -2.14022       -0.63039       -5.30534
H         -1.16047        0.68542       -4.59719
H         -2.06049       -0.42860       -3.53622
H          0.07604       -3.46899       -4.22763
H         -1.40336       -3.03332       -5.11236
H         -1.33802       -2.86064       -3.33654
H          4.40210       -1.02216       -3.52402
H          3.14453       -0.97671       -4.77862
H          3.31427        0.38776       -3.64955
H          2.25552       -3.25658       -3.88452
H          1.79945       -3.39975       -2.16524
H          3.51240       -3.23626       -2.63565
H          2.10558       -1.42811       -0.57784
H          3.80761       -1.26129       -1.09344
H          2.70267        0.13397       -1.19387
