26
DIALLYL_MALEATE.gamout	Energy:    -688.2339717
C          0.09679       49.01701       -0.05168
C          1.12555       49.96915        0.48467
C          0.29083       47.73281       -0.38119
O          2.01797       50.32227       -0.44858
O          1.08130       50.39991        1.60961
C          3.06166       51.23741       -0.04900
C          2.67863       52.65662       -0.34999
C          2.57980       53.61386        0.57505
C          1.60833       47.05410       -0.28249
O          1.55077       45.83431       -0.84987
O          2.60027       47.51062        0.23917
C          2.75926       45.04689       -0.83418
C          2.94616       44.31764        0.46378
C          2.98030       42.98699        0.56395
H         -0.91428       49.43281       -0.10102
H         -0.54344       47.11909       -0.72675
H          3.27805       51.10191        1.01945
H          3.93531       50.93036       -0.64395
H          2.47899       52.88544       -1.40414
H          2.31441       54.64034        0.30885
H          2.75710       53.40183        1.63422
H          2.65210       44.34033       -1.66874
H          3.61114       45.71951       -1.02293
H          3.07964       44.94453        1.35238
H          3.14649       42.48931        1.52288
H          2.85100       42.34310       -0.31283
