22
DIBENZOPYRROLE.gamout	Energy:    -516.7827264
C          3.36955       -0.96634       -0.35678
C          2.91781        0.17973        0.32283
C          2.51915       -2.04964       -0.57048
C         -1.00439       -2.24023        0.52494
N         -0.56459       -0.99773        0.94945
C          0.06807       -2.89838       -0.13836
C         -2.25980       -2.84260        0.66889
C          0.75984       -0.82281        0.58524
C          1.19981       -1.98913       -0.09952
C          1.61107        0.26741        0.80181
C         -0.13638       -4.18282       -0.66170
C         -1.38461       -4.78604       -0.52063
C         -2.43431       -4.12057        0.13859
H          4.39887       -1.00504       -0.72013
H          3.60297        1.01740        0.47866
H          2.87659       -2.93625       -1.09897
H         -1.12472       -0.32128        1.44903
H         -3.07815       -2.33039        1.17968
H          1.26582        1.15950        1.32870
H          0.67423       -4.70533       -1.17479
H         -1.55211       -5.78647       -0.92549
H         -3.40532       -4.61339        0.23760
