30
DIBENZYLAMINE.gamout	Energy:    -596.4551135
C          6.27718        1.81068       -0.55301
C          6.86289        0.54138       -0.66057
C          7.13520        3.06014       -0.56934
C          4.88793        1.89563       -0.38421
N          6.47773        4.19602       -1.19454
C          7.26654        5.41705       -1.18354
C          6.54338        6.59267       -1.80875
C          7.23224        7.51522       -2.60771
C          5.17800        6.80307       -1.56739
C          4.52202        7.91076       -2.10642
C          5.22062        8.83061       -2.89357
C          6.57961        8.62885       -3.14273
C          6.08422       -0.61621       -0.58811
C          4.70116       -0.52045       -0.41850
C          4.10695        0.74031       -0.32050
H          7.94402        0.45869       -0.80483
H          7.37097        3.34901        0.47393
H          8.11746        2.81724       -1.03321
H          4.42756        2.88218       -0.30953
H          6.20336        3.96296       -2.14970
H          7.49483        5.65338       -0.12575
H          8.25682        5.30177       -1.67828
H          8.29537        7.36062       -2.81319
H          4.63493        6.08096       -0.95487
H          3.45750        8.05932       -1.90815
H          4.70715        9.69835       -3.31465
H          7.13491        9.33717       -3.76209
H          6.55983       -1.59612       -0.67264
H          4.08867       -1.42395       -0.36692
H          3.02513        0.82480       -0.19012
