21
DIBENZOFURAN.gamout	Energy:    -536.6199421
C          1.04480        2.03425        0.08307
C          2.04973        1.06278        0.06756
C          3.36362        1.51788        0.05639
C          1.35590        3.40586        0.08713
C          2.68036        3.84301        0.07567
C          3.70423        2.88612        0.05997
C          5.15680        2.91731        0.04502
C          6.13935        3.91655        0.03997
C          5.55507        1.56515        0.03409
C          7.48116        3.53599        0.02446
C          7.85003        2.17929        0.01399
C          6.88693        1.16645        0.01859
O          4.47698        0.72207        0.04077
H         -0.00252        1.72153        0.09229
H          1.82422       -0.00451        0.06430
H          0.54606        4.13860        0.09938
H          2.91471        4.90976        0.07891
H          5.86092        4.97255        0.04814
H          8.25928        4.30242        0.02042
H          8.90964        1.91117        0.00202
H          7.15704        0.10971        0.01056
