21
DIBENZOTHIOPHENE.gamout	Energy:    -859.5145420
S         -0.00007       -2.14345       -0.00030
C          0.72816        0.40576       -0.00009
C         -0.72825        0.40566       -0.00009
C          1.25904       -0.90681       -0.00020
C         -1.25912       -0.90683       -0.00020
C          1.61675        1.49479        0.00000
C         -1.61666        1.49465        0.00000
C          2.64045       -1.13540       -0.00020
C         -2.64050       -1.13540       -0.00020
C          2.99019        1.27112       -0.00000
C         -2.99010        1.27108       -0.00000
C          3.50039       -0.03818       -0.00010
C         -3.50038       -0.03814       -0.00010
H          1.22826        2.51616        0.00003
H         -1.22818        2.51602        0.00003
H          3.03617       -2.15288       -0.00030
H         -3.03624       -2.15286       -0.00030
H          3.67723        2.12004        0.00003
H         -3.67708        2.12005        0.00003
H          4.58162       -0.19959       -0.00010
H         -4.58162       -0.19948       -0.00010
