8
DIBROMOACETIC_ACID.gamout	Energy:   -5375.0438277
Br        -1.35755        2.56216        0.90442
Br        -1.71117       -0.67047        0.69215
O          0.96132        0.75355       -0.38938
O          1.70459        0.53525        1.72122
C         -0.64126        0.80926        1.38415
C          0.80520        0.68361        0.93483
H         -0.66791        0.74060        2.47431
H          1.91261        0.66352       -0.57160
