8
DICHLOROACETIC_ACID.gamout	Energy:   -1147.5850075
C          0.40169        0.22361        0.20084
C         -1.11338        0.22926       -0.03544
Cl        -1.76572       -1.33289        0.57668
Cl        -1.87657        1.63199        0.73976
O          1.01281       -0.34559       -0.85168
O          0.96382        0.64067        1.17254
H         -1.33225        0.26427       -1.10780
H          1.96525       -0.37922       -0.65129
