5
DICHLORODIFLUOROMETHANE.gamout	Energy:   -1157.5060959
C          0.94832        0.90155        0.00289
Cl         0.05883        2.44470       -0.02453
F          2.25469        1.14811       -0.01134
Cl         0.54446       -0.05829        1.44846
F          0.64712        0.20169       -1.08650
