6
DICHLOROACETONITRILE.gamout	Energy:   -1051.3548851
Cl         1.26531       -1.49114       -0.20377
Cl         1.26393        1.49093       -0.20391
N         -2.06163        0.00197       -0.15397
C          0.49111       -0.00040        0.42503
C         -0.93117       -0.00098        0.09699
H          0.63199       -0.00032        1.51317
