35
DICYCLOHEXYL_SULFIDE.gamout	Energy:    -867.8938100
S         -0.00009       -1.43566        0.00119
C          1.42455       -0.26098       -0.07500
C         -1.42483       -0.26104        0.07592
C          1.83538        0.26407        1.30593
C          2.61118       -0.93600       -0.77241
C         -1.83435        0.26447       -1.30510
C         -2.61211       -0.93667        0.77133
C          3.03003        1.22242        1.20607
C          3.80854        0.01838       -0.87340
C         -3.02879        1.22304       -1.20569
C         -3.80984        0.01733        0.87155
C          4.21605        0.56398        0.49758
C         -4.21565        0.56400       -0.49938
H          1.09841        0.58711       -0.70248
H         -1.09957        0.58681        0.70418
H          2.09532       -0.59818        1.94506
H          0.98271        0.76617        1.78947
H          2.30585       -1.28036       -1.77214
H          2.90371       -1.83759       -0.20251
H         -2.09389       -0.59742       -1.94486
H         -0.98109        0.76666       -1.78746
H         -2.30801       -1.28151        1.77120
H         -2.90359       -1.83796        0.20042
H          3.32294        1.56747        2.21113
H          2.72206        2.12467        0.64489
H          3.54063        0.86154       -1.53653
H          4.65856       -0.49559       -1.35097
H         -3.32048        1.56926       -2.21067
H         -2.72111        2.12452       -0.64314
H         -3.54287        0.86001        1.53564
H         -4.66032       -0.49717        1.34763
H          5.04771        1.27921        0.39280
H          4.59750       -0.26662        1.12078
H         -5.04742        1.27912       -0.39497
H         -4.59629       -0.26602       -1.12386
