36
DICYCLOHEXYLAMINE.gamout	Energy:    -525.1497083
C         -1.10311       -0.08966        2.52114
C         -0.83612        1.41556        2.61292
C         -0.44125       -0.69139        1.27928
C          3.49014        1.37355        0.03814
C          3.14775        2.51506       -0.93831
C          5.00161        1.38681        0.31992
N          2.75443        1.50404        1.29712
C          3.63026        3.87975       -0.43853
C          5.49540        2.74322        0.83464
C          5.13253        3.86762       -0.13979
C          1.33932        1.13972        1.31186
C          1.05860       -0.37543        1.23061
C          0.66175        1.72885        2.55666
H         -2.18774       -0.28662        2.51226
H         -0.70363       -0.58711        3.42466
H         -1.34553        1.92661        1.77470
H         -1.27450        1.82791        3.53603
H         -0.60404       -1.78128        1.24319
H         -0.92439       -0.27682        0.37489
H          3.26031        0.41552       -0.47511
H          2.06341        2.54038       -1.13160
H          3.62121        2.28067       -1.90876
H          5.25085        0.58419        1.03577
H          5.52692        1.13425       -0.61754
H          3.24125        0.99606        2.03570
H          3.07868        4.13901        0.48055
H          3.39648        4.65631       -1.18421
H          5.03639        2.95001        1.81651
H          6.58553        2.70870        0.99246
H          5.44961        4.84208        0.26529
H          5.69131        3.72459       -1.08381
H          0.86848        1.61242        0.43035
H          1.56930       -0.86966        2.07986
H          1.49859       -0.79723        0.31338
H          0.83695        2.81513        2.57690
H          1.15747        1.31743        3.45756
