50
DICYCLOHEXYL_PHTHALATE.gamout	Energy:   -1077.3065168
C          6.30478        1.82259       -0.61695
C          6.89416        0.67788       -0.06669
C          4.93427        1.87720       -0.86754
C          4.12930        0.77905       -0.56161
C          4.70020       -0.35869        0.00824
C          6.07539       -0.41945        0.27673
C          6.60815       -1.60116        1.03392
C          8.39230        0.72328        0.07208
O          5.94938       -2.72809        0.70823
O          7.47816       -1.54453        1.87117
C          6.26906       -3.94172        1.42150
O          8.97239       -0.41763       -0.32596
O          8.98736        1.71994        0.40925
C         10.41389       -0.51284       -0.29058
C         10.91650       -0.75552       -1.70756
C         10.81841       -1.63641        0.65437
C          7.40066       -4.69156        0.72334
C          4.99682       -4.77304        1.47861
C         12.43735       -0.94209       -1.71675
C         12.86835       -2.05974       -0.76529
C         12.33989       -1.81844        0.65072
C          7.65963       -6.03881        1.40691
C          6.38748       -6.88533        1.47533
C          5.25200       -6.12100        2.15969
H          6.94695        2.67114       -0.85728
H          4.49728        2.77733       -1.30459
H          3.05513        0.81111       -0.75694
H          4.07685       -1.21382        0.27012
H          6.59392       -3.66433        2.43767
H         10.80393        0.44702        0.08070
H         10.42297       -1.65815       -2.11043
H         10.62314        0.08745       -2.35116
H         10.44253       -1.41979        1.66409
H         10.33090       -2.57137        0.32460
H          7.11508       -4.84939       -0.33184
H          8.31036       -4.07453        0.72913
H          4.21345       -4.20877        2.00703
H          4.63842       -4.93434        0.44626
H         12.78334       -1.15121       -2.74108
H         12.92180        0.00394       -1.41246
H         12.47964       -3.02595       -1.13754
H         13.96590       -2.14992       -0.75516
H         12.61910       -2.65302        1.31232
H         12.81939       -0.91519        1.07092
H          8.45643       -6.58112        0.87407
H          8.03626       -5.86012        2.43080
H          6.07621       -7.16148        0.45063
H          6.58327       -7.83015        2.00583
H          4.32827       -6.71977        2.16103
H          5.51396       -5.94964        3.21996
