17
DIETHYLENE_GLYCOL.gamout	Energy:    -383.5776241
O          1.74544        6.35737       -1.64018
C          1.98828        5.73155       -0.39963
C          3.02236        4.64480       -0.63298
O          3.27791        4.01194        0.59332
C          4.22826        2.98134        0.52090
O          5.35842        1.36830        1.82477
C          4.40015        2.40011        1.91234
H          1.09065        7.05352       -1.51095
H          2.38425        6.43466        0.36085
H          1.07670        5.26488        0.02575
H          2.64048        3.92716       -1.38867
H          3.94418        5.09761       -1.05396
H          3.90624        2.18175       -0.17800
H          5.20567        3.35793        0.15390
H          5.48081        0.98695        2.70206
H          3.41442        2.03480        2.26514
H          4.71485        3.21341        2.59710
