21
DIETHYLENE_GLYCOL_DINITRATE.gamout	Energy:    -792.0398898
O         35.82728       29.31049        0.18514
C         36.49602       30.02457        1.22730
C         37.43791       31.06555        0.65755
N         36.40443       28.05177       -0.17404
O         38.49330       30.41451       -0.00036
O         35.92250       27.61440       -1.17621
O         37.24038       27.58746        0.55095
C         39.38703       31.27459       -0.65566
C         40.52469       30.45459       -1.22969
O         41.33205       29.90173       -0.18705
N         41.04110       28.54912        0.17327
O         41.60936       28.22594        1.17373
O         40.32160       27.91551       -0.54844
H         35.69518       30.51083        1.80351
H         37.03615       29.32037        1.87528
H         36.88542       31.72888       -0.03943
H         37.81182       31.69752        1.49115
H         38.88948       31.82276       -1.48384
H         39.79506       32.03165        0.04550
H         40.14556       29.64980       -1.87461
H         41.20317       31.09754       -1.80960
