35
DIETHYLCARBAMAZINE.gamout	Energy:    -632.3325491
O         -0.83042        0.05635       -1.81777
N          0.31306       -0.66659        0.03004
N          3.07594        0.04016        0.32008
N         -1.87083        0.23238        0.21715
C          0.82996       -0.18909        1.30776
C          1.34184       -1.26578       -0.81111
C          2.06136        0.70368        1.11675
C          2.55019       -0.34655       -0.98050
C         -0.79632       -0.11331       -0.60535
C          4.30083        0.80105        0.22724
C         -2.90254        1.05882       -0.41715
C         -2.32997       -0.67303        1.27241
C         -2.44571        2.49765       -0.64499
C         -3.20388       -1.83329        0.78297
H          1.11149       -1.05276        1.93833
H          0.05512        0.38473        1.82770
H          0.89627       -1.48603       -1.78759
H          1.67637       -2.20795       -0.33976
H          1.74138        1.67178        0.65958
H          2.48194        0.94009        2.10889
H          3.33732       -0.87840       -1.53936
H          2.25123        0.53878       -1.58883
H          5.06343        0.22529       -0.32173
H          4.69553        1.00824        1.23495
H          4.17737        1.77940       -0.29403
H         -3.77585        1.05457        0.25446
H         -3.22199        0.61513       -1.37620
H         -2.88514       -0.07317        2.01373
H         -1.46033       -1.08211        1.79883
H         -1.59707        2.52675       -1.34436
H         -2.13772        2.96814        0.30284
H         -3.26391        3.09388       -1.07975
H         -2.65805       -2.46171        0.06042
H         -4.12783       -1.48102        0.29658
H         -3.49427       -2.47033        1.63451
