18
DIETHYL_CARBONATE.gamout	Energy:    -421.6950181
O          5.21166        2.76865        1.01683
C          3.89750        3.00409        1.05004
O          3.17583        1.86797        0.99056
O          3.43530        4.11002        1.12491
C          5.72715        1.43046        0.93198
C          1.74747        2.03016        1.02253
C          7.23832        1.52614        0.93017
C          1.12123        0.65533        0.93836
H          5.35948        0.84026        1.78759
H          5.34755        0.95131        0.01459
H          1.44362        2.67551        0.18235
H          1.47018        2.55580        1.95061
H          7.59575        2.10134        0.06215
H          7.59880        2.02222        1.84450
H          7.67751        0.51730        0.88442
H          0.02430        0.74197        0.98356
H          1.38746        0.15325       -0.00511
H          1.44990        0.01805        1.77439
