26
DIETHYL_SUCCINATE.gamout	Energy:    -613.4115825
O         -2.72325       -0.81160        0.19069
O          2.13198        0.47159       -0.62485
O         -2.73342        0.41640       -1.69343
O          2.14257       -0.75527        1.26003
C         -0.76979        0.43376       -0.27724
C          0.17900       -0.77380       -0.15599
C         -2.16993        0.03634       -0.69656
C          1.57905       -0.37593        0.26295
C         -4.05454       -1.26741       -0.09735
C          3.46319        0.92775       -0.33734
C         -4.47726       -2.20802        1.01009
C          3.88560        1.86732       -1.44572
H         -0.39375        1.14923       -1.01921
H         -0.83562        0.94401        0.69875
H         -0.19676       -1.48913        0.58623
H          0.24462       -1.28425       -1.13188
H         -4.72242       -0.39365       -0.17721
H         -4.05851       -1.76091       -1.08337
H          3.46728        1.42217        0.64822
H          4.13116        0.05412       -0.25671
H         -5.49687       -2.57817        0.81885
H         -3.80161       -3.07571        1.07181
H         -4.47340       -1.69982        1.98724
H          4.90520        2.23777       -1.25505
H          3.88157        1.35819       -2.42239
H          3.20985        2.73489       -1.50818
