20
DIETHYL_OXALATE.gamout	Energy:    -534.8834369
C          0.49936        1.03886        0.72353
C          1.11614        1.15675       -0.66024
O          2.43600        1.73457       -0.61522
C          3.46073        0.90716       -0.41530
C          4.78264        1.70261       -0.42729
O          3.38863       -0.28215       -0.24907
O          5.80617        0.86917       -0.60700
O          4.85608        2.89596       -0.29287
C          7.12559        1.44497       -0.67195
C          7.74726        1.59697        0.70615
H         -0.53596        0.67267        0.63203
H          1.05597        0.32543        1.34956
H          0.47444        2.01573        1.23119
H          0.53962        1.84321       -1.29658
H          1.17599        0.17324       -1.15109
H          7.69964        0.74246       -1.29286
H          7.06428        2.41591       -1.18702
H          8.78190        1.96167        0.60187
H          7.19280        2.32524        1.31685
H          7.77506        0.63289        1.23750
