20
DIETHYLENE_TRIAMINE.gamout	Energy:    -324.0325231
N         -0.09330        9.94108       -0.00264
C          1.19973        9.26717        0.01791
C          2.34078       10.28291        0.04059
N          3.63567        9.62637        0.04325
C          4.77782       10.52409        0.03471
N          7.23257       10.66264       -0.04087
C          6.09361        9.74990       -0.03505
H         -0.84923        9.26647       -0.11805
H         -0.26366       10.40948        0.88879
H          1.30011        8.65613       -0.89460
H          1.33780        8.56278        0.87156
H          2.19479       10.97052        0.90942
H          2.25927       10.91925       -0.85747
H          3.70179        9.00730        0.85264
H          4.69723       11.17709       -0.85509
H          4.81770       11.20995        0.91066
H          8.10851       10.14197        0.00506
H          7.26023       11.18143       -0.92040
H          6.17538        9.10730        0.86149
H          6.03860        9.05870       -0.90290
