16
DIETHYL_DISULFIDE.gamout	Energy:    -954.2571224
C          0.09355        0.19464        0.09013
C          1.32444        1.09481        0.03447
S          1.06478        2.39473       -1.25222
S          2.86533        3.43798       -1.25002
C          2.60530        4.73834        0.03490
C          3.83892        5.63465        0.08862
H          0.23168       -0.59027        0.85166
H         -0.81148        0.76516        0.35418
H         -0.08509       -0.30059       -0.87783
H          2.22770        0.52638       -0.23394
H          1.50050        1.58527        1.00454
H          1.70352        5.30858       -0.23464
H          2.42781        4.24977        1.00566
H          3.70401        6.42162        0.84859
H          4.74201        5.06147        0.35341
H          4.01874        6.12732       -0.88041
