19
DIETHYL_SULFATE.gamout	Energy:    -856.6893585
O          2.71371        0.39803        0.63639
S          1.23455        0.17168       -0.00108
O          0.93439        1.63713       -0.64005
O          1.31689       -0.72314       -1.13794
O          0.36746       -0.06059        1.13671
C          3.85000        0.36079       -0.26195
C          0.52518        2.69722        0.25930
C          5.09413        0.52695        0.58318
C          0.29837        3.93453       -0.58192
H          3.84235       -0.59967       -0.79993
H          3.74751        1.17144       -1.00362
H         -0.38965        2.38086        0.78387
H          1.31648        2.85538        1.01168
H          5.98579        0.49532       -0.06266
H          5.08668        1.48938        1.11759
H          5.17291       -0.28252        1.32490
H         -0.02532        4.76549        0.06449
H          1.22097        4.23696       -1.10078
H         -0.48328        3.75580       -1.33597
