23
DIETHYL_MALONATE.gamout	Energy:    -574.1533444
C          0.33346       29.94598       -0.43920
C          1.22188       28.97972        0.32605
O          2.45109       29.61217        0.73243
C          3.47227       29.59414       -0.13986
C          4.63618       30.41094        0.38157
O          3.46780       29.00184       -1.18929
C          4.39924       31.90281        0.21185
O          5.37056       32.60064        0.82182
O          3.48141       32.39343       -0.39646
C          6.09655       34.52002       -0.50894
C          5.32854       34.03730        0.70999
H         -0.62712       29.46192       -0.67841
H          0.12879       30.84840        0.15727
H          0.80892       30.25480       -1.38193
H          1.46316       28.09465       -0.28114
H          0.74853       28.65651        1.26471
H          4.81574       30.19966        1.44617
H          5.53903       30.13602       -0.18290
H          6.11820       35.62154       -0.52709
H          7.13555       34.15530       -0.49013
H          5.61847       34.17492       -1.43843
H          4.27693       34.35559        0.66989
H          5.78425       34.40409        1.64128
