26
DIETHYLENE_GLYCOL_MONOPROPYL_ETHER.gamout	Energy:    -501.3434778
O         -1.74180       -0.30450        0.00109
O          1.78327        0.30567        0.00085
O          5.32631       -0.22898       -0.00335
C         -0.57499        0.47347        0.00344
C         -2.93656        0.43715        0.00613
C          0.61362       -0.46962       -0.00169
C         -4.11312       -0.52594        0.00274
C          2.97176       -0.44132       -0.00280
C         -5.46449        0.18652        0.00854
C          4.13707        0.53109        0.00046
H         -0.52402        1.13613       -0.88566
H         -0.52235        1.12834        0.89820
H         -2.98220        1.10552       -0.88141
H         -2.98020        1.09653        0.90049
H          0.56086       -1.12368       -0.89632
H          0.56223       -1.13130        0.88741
H         -4.02157       -1.17616       -0.88423
H         -4.01897       -1.18504        0.88283
H          3.03976       -1.10126        0.88670
H          3.03875       -1.09421       -0.89756
H         -5.58558        0.83220       -0.87761
H         -6.29407       -0.53729        0.00617
H         -5.58258        0.82291        0.90180
H          4.05095        1.18033        0.89520
H          4.04986        1.18740       -0.88898
H          6.07714        0.37623       -0.00137
