15
DIETHYL_ETHER.gamout	Energy:    -233.3378985
C          0.99139        2.77012        2.42617
C         -0.47029        2.47632        2.14477
O          1.78783        1.89496        1.66653
C          3.17083        2.07278        1.84575
C          3.91260        1.07400        0.97784
H          1.20975        2.64844        3.50986
H          1.23119        3.82702        2.17693
H         -1.12187        3.14704        2.72657
H         -0.71228        1.43522        2.41003
H         -0.69107        2.61520        1.07467
H          3.44368        1.93437        2.91521
H          3.46538        3.11229        1.58238
H          5.00164        1.18669        1.09826
H          3.66056        1.22378       -0.08379
H          3.63434        0.04448        1.25248
