18
DIETHANOLAMINE.gamout	Energy:    -363.7303339
C         -2.22602       -0.20276        0.04240
C         -1.07730        0.80183       -0.04798
C          1.36262        1.01355        0.00966
C          2.66312        0.22485        0.15645
O         -3.49178        0.40944       -0.06894
H         -2.11826       -0.79507        0.97297
H         -2.15637       -0.91768       -0.79659
H         -3.62807        0.96348        0.71095
O          3.79976        1.05715        0.20578
H          2.73721       -0.52569       -0.66112
H          2.63608       -0.34110        1.10093
H          3.86638        1.52826       -0.63556
N          0.20921        0.13477        0.01889
H         -1.14850        1.50328        0.80543
H         -1.22047        1.41748       -0.96546
H          1.42536        1.64607       -0.91062
H          1.28593        1.71812        0.85628
H          0.28527       -0.53835       -0.74485
