18
DIETHYL_SULFITE.gamout	Energy:    -781.5760256
O          1.81502        1.55284        0.35770
S          1.83942        0.90722       -0.97505
O          0.53073       -0.12936       -1.06174
O          3.10115       -0.18568       -0.98128
C         -0.04886       -0.66375        0.14189
C          3.54958       -0.77615        0.25153
C         -1.53506       -0.85051       -0.09259
C          5.04397       -1.01022        0.15101
H          0.44191       -1.62612        0.37445
H          0.14222        0.03070        0.97634
H          3.30511       -0.10094        1.08779
H          3.00866       -1.72743        0.40549
H         -2.00788       -1.28713        0.80195
H         -2.01763        0.11617       -0.30514
H         -1.71760       -1.52192       -0.94584
H          5.41083       -1.50213        1.06652
H          5.28370       -1.65438       -0.70918
H          5.58116       -0.05692        0.02922
