16
DIETHYLAMINE.gamout	Energy:    -213.4884501
C         52.03526       10.05119        0.01230
N         50.82867        9.24150       -0.01655
C         51.06517        7.80811        0.01307
C         51.71192       11.54107       -0.00053
C         49.75812        7.02268       -0.00095
H         52.68821        9.81926        0.88735
H         52.63776        9.79678       -0.87909
H         50.22582        9.50235        0.76567
H         51.66326        7.54035       -0.87752
H         51.68106        7.48968        0.88790
H         52.63236       12.14583       -0.01720
H         51.10555       11.79962       -0.88308
H         51.13990       11.83373        0.89729
H         49.94775        5.93792       -0.01630
H         49.15127        7.23990        0.89554
H         49.15649        7.28836       -0.88445
