9
DIFLUOROMETHYL_TRIFLUOROMETHYL_ETHER.gamout	Energy:    -650.5116901
C         -0.82293        1.92592       -0.86349
C         -1.57267        4.11154       -1.37211
O         -1.64837        2.96914       -0.57756
F         -2.77347        4.68678       -1.31892
F         -0.66820        4.95946       -0.86040
H         -1.30548        3.87296       -2.41553
F          0.46655        2.25628       -0.73768
F         -1.00037        1.48860       -2.12122
F         -1.10571        0.94634       -0.02392
