18
DIGLYCOLAMINE.gamout	Energy:    -363.7295922
O          0.55760        0.50995       -0.21140
O         -3.02570        0.45838       -0.21986
N          4.06063       -0.53421        0.01054
C          1.61752       -0.39472       -0.02958
C         -0.72029       -0.06102       -0.10921
C          2.92855        0.36190       -0.19002
C         -1.74344        1.03895       -0.32712
H          1.58077       -0.86501        0.97423
H          1.55784       -1.21952       -0.77393
H         -0.87153       -0.86009       -0.86507
H         -0.88176       -0.52241        0.88723
H          2.90405        0.88346       -1.17129
H          2.95648        1.15188        0.57945
H         -1.56545        1.49184       -1.32358
H         -1.57179        1.83196        0.42859
H          4.93411       -0.00900        0.01741
H          4.13487       -1.19307       -0.76640
H         -3.68638        1.14894       -0.34875
