14
DIHYDROPYRAN.gamout	Energy:    -270.1794790
C          2.79910        3.36946        1.21174
C          3.53352        2.16741        1.81874
C          1.39215        2.97237        0.84736
C          3.21215        0.90622        1.02229
C          1.00650        1.68698        0.81018
O          1.81604        0.61704        1.01744
H          3.34289        3.74870        0.32473
H          2.78416        4.20708        1.93048
H          3.20936        2.01622        2.86282
H          4.62352        2.32591        1.83554
H          0.64540        3.74281        0.64298
H          3.70396        0.01866        1.44513
H          3.55115        1.02411       -0.02577
H         -0.02305        1.37806        0.61160
