20
DIHYDROGEN_CITRATE-1.gamout	Energy:    -758.5914982
O         -0.37717       -0.37658        1.49600
O          0.67956       -2.48120        0.62894
O          1.02320       -1.70487       -1.47912
O          2.47403        0.28002        1.02800
O         -2.23201        1.88129       -0.68265
O          2.88608        1.52023       -0.78001
O         -3.59552        0.45060        0.35112
C         -0.18013       -0.33226        0.11024
C          0.58967        0.94163       -0.29840
C         -1.54929       -0.41274       -0.63167
C          0.60730       -1.64958       -0.31159
C          2.08341        0.94211       -0.07920
C         -2.56363        0.63070       -0.25455
H          0.18235        1.78507        0.28464
H          0.44454        1.18535       -1.35793
H         -1.35643       -0.37560       -1.71500
H         -1.99439       -1.38445       -0.38112
H         -0.01810       -1.29093        1.67060
H         -2.94439        2.45528       -0.35323
H          3.44502        0.30782        1.01364
