27
DIISOBUTYL_ETHER.gamout	Energy:    -390.3650485
O         -0.04145       -0.05871       -0.30810
C          1.82957       -1.56896       -0.34631
C         -2.09089        1.20040       -0.34671
C          1.36380       -0.11539       -0.31869
C         -0.56557        1.24628       -0.32601
C          3.35439       -1.63297       -0.46699
C          1.32730       -2.34529        0.87308
C         -2.65864        2.61691       -0.46944
C         -2.64822        0.47452        0.87940
H          1.38642       -2.02344       -1.25177
H         -2.37788        0.62716       -1.24769
H          1.76049        0.42390       -1.20547
H          1.77993        0.39807        0.57731
H         -0.19342        1.79637       -1.21679
H         -0.21809        1.81647        0.56497
H          3.71604       -1.10310       -1.36332
H          3.70319       -2.67567       -0.53378
H          3.84389       -1.17668        0.41124
H          1.64510       -3.39941        0.82831
H          0.23009       -2.31892        0.93313
H          1.72794       -1.91417        1.80771
H         -2.28474        3.13145       -1.36973
H         -3.75833        2.59971       -0.52909
H         -2.38433        3.23224        0.40524
H         -3.74789        0.41827        0.83941
H         -2.25395       -0.54948        0.94339
H         -2.37302        1.00218        1.80982
