22
DIISOPROPYLAMINE.gamout	Energy:    -292.0008366
N         35.15501       29.50790        0.45904
C         33.86595       28.87819        0.72409
C         36.05776       28.91268       -0.52807
C         33.24487       29.54061        1.95614
C         32.87320       28.87095       -0.45332
C         36.02619       29.62207       -1.89030
C         37.48482       28.87003        0.03242
H         35.04677       30.50990        0.30352
H         34.07955       27.82428        0.98546
H         35.72888       27.86831       -0.68043
H         32.30639       29.04592        2.25312
H         33.94817       29.50857        2.80138
H         33.01047       30.60140        1.75419
H         31.92768       28.37730       -0.17178
H         33.27823       28.33442       -1.32539
H         32.63422       29.90181       -0.76908
H         36.70641       29.14108       -2.61240
H         35.01447       29.62127       -2.32278
H         36.34908       30.67352       -1.78554
H         38.18373       28.37591       -0.66334
H         37.49774       28.33029        0.99092
H         37.85668       29.89167        0.22259
