28
DIISOBUTYL_KETONE.gamout	Energy:    -428.4358027
C          4.73312        2.43868        2.69648
C          3.57655        3.42014        2.52737
C          5.37739        1.95465        1.39201
C          2.71787        3.68449        3.76195
O          3.35285        3.96625        1.46745
C          6.72336        1.27614        1.66483
C          4.43500        1.03110        0.61416
C          1.79865        4.90774        3.66477
C          2.59856        6.21334        3.68655
C          0.73805        4.88999        4.77001
H          4.39693        1.58740        3.31819
H          5.47891        2.96620        3.32217
H          5.55763        2.84958        0.77149
H          2.11925        2.76494        3.91157
H          3.37208        3.74273        4.65217
H          7.19644        0.94336        0.72704
H          6.60395        0.38609        2.30823
H          7.42693        1.95881        2.16915
H          3.48641        1.53711        0.38177
H          4.20855        0.11641        1.19072
H          4.88780        0.71655       -0.33966
H          1.28717        4.84506        2.68868
H          3.32798        6.24753        2.86371
H          3.14570        6.33038        4.63910
H          1.93386        7.08502        3.57751
H          1.19800        4.94096        5.77287
H          0.12678        3.97364        4.73025
H          0.05687        5.75037        4.67455
