28
DIISOBUTYLAMINE.gamout	Energy:    -370.5141829
C          0.18734       31.30866       -0.56136
C          1.62047       31.28716       -0.01777
C          2.12440       32.70970        0.24921
C          1.75427       30.42439        1.24589
N          1.42712       29.02618        1.02254
C          1.65640       28.15255        2.16184
C          1.32877       26.68420        1.85279
C          2.20121       26.13515        0.72074
C          1.44450       25.82966        3.11819
H          0.11446       31.95185       -1.45290
H         -0.15449       30.30497       -0.86114
H         -0.51991       31.70156        0.19101
H          2.26686       30.82409       -0.78565
H          3.16977       32.70935        0.59874
H          2.07761       33.32721       -0.66224
H          1.51497       33.21096        1.02152
H          2.80158       30.47386        1.59340
H          1.14739       30.88788        2.06239
H          0.45481       28.93906        0.72780
H          2.72269       28.22894        2.44990
H          1.08086       28.46532        3.06428
H          0.27238       26.64881        1.51765
H          1.89388       25.11538        0.43772
H          2.14047       26.78224       -0.16588
H          3.26047       26.09210        1.03047
H          1.17967       24.77889        2.91874
H          0.78244       26.19764        3.91882
H          2.47766       25.84474        3.50685
