22
DIISOPROPYL_KETONE.gamout	Energy:    -349.9203206
C          1.30040        0.15235        0.47423
C          1.84713       -1.25903        0.77049
C          2.32401        1.00449       -0.27755
C         -0.00018       -0.00023       -0.32010
O         -0.00028       -0.00046       -1.53293
C         -1.30027       -0.15251        0.47414
C         -1.84655        1.25877        0.77033
C         -2.32425       -1.00348       -0.27782
H          1.05731        0.62652        1.44218
H          1.12251       -1.87548        1.32630
H          2.08851       -1.78249       -0.16903
H          2.76666       -1.19664        1.37331
H          2.56425        0.54780       -1.24953
H          1.93728        2.01628       -0.47640
H          3.25265        1.10225        0.30591
H         -1.05725       -0.62676        1.44208
H         -2.76601        1.19678        1.37330
H         -1.12167        1.87485        1.32611
H         -2.08780        1.78242       -0.16914
H         -1.93846       -2.01554       -0.47700
H         -3.25296       -1.10070        0.30558
H         -2.56404       -0.54633       -1.24972
