21
DIISOPROPYL_ETHER.gamout	Energy:    -311.8559241
O          2.90866        2.15180        1.78980
C          1.85345        1.33306        2.27665
C          3.87534        1.52421        0.95683
C          0.64782        2.23913        2.49125
C          2.27265        0.61392        3.55970
C          5.18564        2.27709        1.14743
C          3.41616        1.52065       -0.50165
H          1.59012        0.57331        1.51238
H          4.02163        0.47501        1.28557
H          0.89301        3.02913        3.21977
H         -0.21469        1.66992        2.87265
H          0.36068        2.72537        1.54698
H          1.45752       -0.02047        3.94384
H          2.53873        1.35097        4.33513
H          3.14894       -0.03107        3.38982
H          5.05887        3.33522        0.86609
H          5.98625        1.84421        0.52690
H          5.49820        2.24146        2.20170
H          3.26980        2.55445       -0.85484
H          2.46090        0.98507       -0.62053
H          4.15932        1.02925       -1.15031
