10
DIKETENE.gamout	Energy:    -304.8505563
C          4.41245        1.48161        1.01258
C          3.08973        1.54839        0.95126
C          1.88793        0.63560        0.89595
O          2.30242        2.71142        0.91459
C          1.12956        1.96683        0.86078
O          0.01652        2.36919        0.80941
H          5.01724        2.38963        1.04039
H          4.91010        0.51146        1.03563
H          1.77465        0.02145       -0.01064
H          1.69153        0.02140        1.78813
