12
DIMETHYLCARBAMATE-1.gamout	Energy:    -322.7621946
C         -5.84162        0.56333        0.06022
C         -3.39728        0.59124        0.00444
N         -4.61099       -0.15522        0.03621
H         -3.31374        1.26531       -0.88555
H         -2.57489       -0.13815       -0.02759
H         -3.26526        1.24998        0.89811
H         -5.97787        1.23904       -0.82187
H         -5.95118        1.21523        0.96193
H         -6.64768       -0.18475        0.05929
C         -4.59668       -1.62794       -0.07070
O         -3.45915       -2.13927       -0.13204
O         -5.72416       -2.16472       -0.08235
