24
DIMETHYL_ISOPHTHALATE.gamout	Energy:    -687.1270627
O          5.09194        3.14675        7.79287
C          4.55101        2.16339        7.04797
O          4.59730        0.99652        7.36077
C          3.89571        2.68500        5.81049
C          5.73553        2.73597        8.99772
C          3.28913        1.76618        4.94786
C          3.87207        4.05278        5.49758
C          2.65987        2.20453        3.77814
C          3.24511        4.49095        4.33091
C          2.02700        1.18126        2.89286
C          2.63960        3.57379        3.47147
O          1.46044        1.73045        1.80118
O          2.01510       -0.00684        3.11601
C          0.83359        0.82125        0.89942
H          6.11270        3.65109        9.47145
H          6.56591        2.04660        8.78138
H          5.02446        2.22494        9.66476
H          3.30661        0.70320        5.18977
H          4.34678        4.76364        6.17410
H          3.22785        5.55611        4.08955
H          2.14763        3.90934        2.55853
H          0.02535        0.26713        1.40098
H          1.56198        0.09450        0.50824
H          0.42721        1.43064        0.08228
