10
DIMETHYLACETYLENE.gamout	Energy:    -155.7576795
C          2.73337        2.64582        1.04738
C          3.89767        3.52821        1.03095
C          1.76711        1.91305        1.06155
C          0.60386        1.02942        1.07924
H          4.70066        3.14641        1.68407
H          3.63921        4.54196        1.38109
H          4.31505        3.62481        0.01429
H         -0.13867        1.32603        0.31908
H          0.09934        1.04740        2.06022
H          0.89012       -0.01587        0.87281
