12
DIMETHYL_CARBONATE.gamout	Energy:    -343.1757632
O          0.75824       -0.37565        0.59256
C         -0.22644        0.42343        1.24369
C          1.74035        0.30190       -0.00851
O          1.84583        1.50277       -0.05045
O          2.58563       -0.57654       -0.55521
C          3.69955       -0.00904       -1.23987
H         -0.98442       -0.27450        1.62061
H         -0.68169        1.13879        0.54182
H          0.21707        0.98964        2.07796
H          4.24307       -0.85113       -1.68644
H          4.35425        0.53493       -0.54082
H          3.36840        0.69043       -2.02264
