24
DIMETHYL_PHTHALATE.gamout	Energy:    -687.1156690
O          5.91132        3.47091        1.19768
C          5.39007        4.68438        1.43078
O          6.01290        5.71527        1.35039
C          3.91146        4.61897        1.69281
C          7.32688        3.41310        1.03389
C          3.30657        3.74501        2.62156
C          3.10906        5.48512        0.94259
C          4.13080        2.91897        3.55961
C          1.90875        3.72724        2.73548
C          1.72031        5.46376        1.06947
O          3.45881        1.83532        3.99487
O          5.24888        3.18949        3.92994
C          1.11773        4.57695        1.96274
C          4.14280        1.01731        4.94142
H          7.65717        4.07758        0.22129
H          7.56440        2.36865        0.79621
H          7.83338        3.71223        1.96505
H          3.59126        6.17438        0.24728
H          1.44976        3.04763        3.45364
H          1.10971        6.14081        0.46787
H          0.03058        4.55385        2.06695
H          3.45877        0.19582        5.18875
H          4.39849        1.58991        5.84658
H          5.07530        0.62191        4.51027
