11
DIMETHYLDICHLOROSILANE.gamout	Energy:   -1289.2076472
Cl        -1.68814       -1.14563        0.00018
Cl         1.68872       -1.14490        0.00270
Si         0.00003        0.08497        0.00027
C          0.00101        1.09609       -1.57277
C         -0.00151        1.10128        1.57009
H          0.00188        0.43960       -2.45705
H         -0.89379        1.73838       -1.62040
H          0.89554        1.73884       -1.61900
H         -0.89642        1.74371        1.61385
H         -0.00212        0.44805        2.45678
H          0.89295        1.74420        1.61549
