24
DIMETHYL_TEREPHTHALATE.gamout	Energy:    -687.1273510
O          1.47766        1.16866        7.58840
C          1.66988        2.35150        6.97682
O          1.16298        3.38225        7.35634
C          2.57162        2.23986        5.79118
C          0.62712        1.18659        8.73329
C          2.84841        3.40823        5.06759
C          3.13813        1.02050        5.39068
C          3.68225        3.36405        3.95461
C          3.97189        0.97640        4.27764
C          4.24875        2.14473        3.55412
C          5.15002        2.03353        2.36868
O          5.34193        3.21680        1.75792
O          5.65711        1.00312        1.98834
C          6.19219        3.19843        0.61330
H         -0.37773        1.54785        8.46613
H          0.57770        0.15191        9.09499
H          1.03769        1.84544        9.51386
H          2.39552        4.34349        5.39931
H          2.91980        0.11536        5.95684
H          3.90064        4.26922        3.38860
H          4.42467        0.04114        3.94582
H          6.24158        4.23286        0.25082
H          7.19705        2.83747        0.88074
H          5.78184        2.53898       -0.16688
