9
DIMETHYL_SULFIDE.gamout	Energy:    -477.7178220
C          0.79668        0.90266        2.31385
S          2.21556        0.33094        1.32827
C          2.77597        1.92031        0.64159
H          0.36177        0.01418        2.79476
H          0.02655        1.37226        1.68055
H          1.10686        1.61073        3.09931
H          3.65106        1.70675        0.01052
H          3.07802        2.62095        1.43683
H          1.99782        2.38801        0.01683
