20
DIMETHYL_SUCCINATE.gamout	Energy:    -534.8908591
C          6.65565        4.87255        3.23820
C          7.20237        4.17023        4.46199
O          6.50526        3.05105        4.72877
O          8.15092        4.53235        5.11481
C          7.15400        6.31204        3.12430
C          6.95994        2.27942        5.84031
C          6.91563        6.97524        1.78488
O          7.11457        6.12214        0.75860
O          6.61859        8.13369        1.62862
C          6.97760        6.66920       -0.55203
H          5.55610        4.81283        3.25591
H          6.97359        4.28817        2.35859
H          8.24171        6.32152        3.31242
H          6.70516        6.96071        3.88965
H          6.27978        1.42174        5.91770
H          6.93190        2.87511        6.76543
H          7.99353        1.93440        5.68260
H          7.70247        7.48167       -0.71479
H          7.16960        5.84470       -1.25032
H          5.96441        7.07126       -0.70616
