11
DIMETHYLCHLOROSILANE.gamout	Energy:    -829.7442557
Cl         1.41113       -0.53806        0.27587
Si         3.38925        0.10682       -0.01052
C          3.67256        0.38453       -1.84672
C          3.66501        1.66493        1.00286
H          3.00183        1.16646       -2.23834
H          4.71365        0.70141       -2.03032
H          3.49081       -0.53871       -2.41984
H          2.99338        2.47470        0.67471
H          3.47709        1.47865        2.07239
H          4.70566        2.01587        0.89470
H          4.27023       -0.98930        0.48437
