22
DIMETHYL_PHENYL_CARBINOL.gamout	Energy:    -424.8307725
C          7.31387        3.94546        0.21681
C          7.21491        3.02678       -1.00722
C          6.75344        3.81856       -2.24097
O          8.54937        2.57075       -1.22916
C          6.28398        1.84411       -0.69915
C          6.82260        0.61469       -0.29229
C          4.88653        1.96064       -0.77144
C          5.99489       -0.46695        0.01916
C          4.05664        0.88236       -0.45747
C          4.60718       -0.33986       -0.06374
H          7.70613        3.38349        1.07665
H          6.32858        4.35347        0.48634
H          8.00177        4.77652        0.00007
H          6.66784        3.16021       -3.12150
H          5.77723        4.30384       -2.09253
H          7.49406        4.60078       -2.46323
H          8.54361        1.99709       -2.00821
H          7.90611        0.51528       -0.21547
H          4.43037        2.90497       -1.07460
H          6.44031       -1.41472        0.33124
H          2.97223        0.99928       -0.52415
H          3.95880       -1.18513        0.17866
