18
DIMETHYL_MALEATE.gamout	Energy:    -533.4974968
C         17.02810       11.05293       -0.28973
C         17.04886       12.30410        0.20181
O         18.11405       13.09190        0.35571
O         15.91097       12.84011        0.80341
C         15.79361       10.29038       -0.12207
C         17.98863       14.45455       -0.06322
C         14.67632       10.99312        0.13413
O         13.47152       10.49541        0.43703
O         14.73676       12.38527        0.09115
C         12.32817       11.16487       -0.08632
H         17.92270       10.63128       -0.74618
H         15.77361        9.20083       -0.12947
H         18.97109       14.91660        0.09925
H         17.72857       14.50648       -1.13462
H         17.22627       14.98540        0.52539
H         11.45335       10.62321        0.29598
H         12.28892       12.21233        0.25085
H         12.32120       11.13570       -1.19068
