13
DIMETHYL_SULFATE.gamout	Energy:    -778.1647571
C          0.31698        0.92600        0.26525
O          1.72193        1.22607        0.25394
S          2.70330        0.19573       -0.53617
O          2.03027       -0.31533       -1.71169
O          3.99210        0.85542       -0.56404
O          2.74237       -1.05709        0.50000
C          3.53221       -0.90384        1.68979
H         -0.15015        1.74747        0.82297
H         -0.08037        0.88707       -0.75963
H          0.12465       -0.03107        0.77606
H          3.44513       -1.86027        2.22063
H          4.58310       -0.70375        1.43463
H          3.13857       -0.08886        2.31813
