52
DIOCTYLAMINE.gamout	Energy:    -684.5634149
N         -0.00017       -0.02731       -0.34922
C         -3.79082       -0.59860       -0.11863
C          3.78939       -0.59748       -0.10407
C         -5.00035        0.34407       -0.07136
C          5.00044        0.34400       -0.06453
C         -2.45026        0.13042       -0.25363
C          2.44989        0.13133       -0.24965
C         -1.23128       -0.79339       -0.28374
C          1.23094       -0.79278       -0.27484
C         -6.35122       -0.36787        0.07752
C          6.35038       -0.36810        0.09242
C         -7.55421        0.58242        0.13690
C          7.55479        0.58151        0.13589
C         -8.90471       -0.12501        0.29346
C          8.90504       -0.12512        0.29772
C        -10.09515        0.83334        0.36118
C         10.09725        0.83281        0.33989
H         -3.77473       -1.21523        0.79979
H         -3.91281       -1.31001       -0.95683
H          3.91072       -1.31710       -0.93536
H          3.77191       -1.20497        0.82033
H         -4.87056        1.05399        0.76712
H         -5.01367        0.96463       -0.98757
H          5.01688        0.95517       -0.98695
H          4.86954        1.06226        0.76665
H         -2.31743        0.83868        0.58283
H         -2.45870        0.74632       -1.17393
H          2.46294        0.73845       -1.17568
H          2.31328        0.84699        0.57990
H         -1.20687       -1.39717        0.64265
H         -1.34246       -1.52622       -1.11910
H          1.34278       -1.53279       -1.10375
H          1.20635       -1.38854        0.65678
H         -6.33502       -0.98898        0.99334
H         -6.48736       -1.07598       -0.76170
H          6.48322       -1.08690       -0.73821
H          6.33596       -0.97707        1.01634
H          0.00371        0.55503       -1.18716
H         -7.57379        1.20463       -0.77831
H         -7.41700        1.29059        0.97613
H          7.41985        1.30061        0.96612
H          7.57292        1.19130       -0.78762
H         -8.88454       -0.74800        1.20699
H         -9.04725       -0.83013       -0.54627
H          9.04159       -0.84442       -0.53090
H          8.89041       -0.73202        1.22205
H        -10.17480        1.44603       -0.55324
H        -10.00556        1.52722        1.21446
H        -11.04475        0.28714        0.47687
H         10.01497        1.54204        1.18119
H         10.17104        1.42837       -0.58622
H         11.04686        0.28729        0.45870
