24
DIPHENYLAMINE.gamout	Energy:    -517.9565296
C          0.44282       -1.33528        0.40549
C          1.05120       -2.60267        0.29744
C         -0.87207       -1.26845        0.90741
N          1.19000       -0.20552        0.06133
C          0.36955       -3.75945        0.67133
C         -0.94207       -3.68786        1.14906
C         -1.55028       -2.43542        1.26276
C          1.32172        3.43229       -0.58408
C          1.66679        2.14724       -0.16993
C          0.06980        3.68313       -1.15220
C          0.77136        1.06980       -0.32724
C         -0.48074        1.32567       -0.91926
C         -0.82147        2.61993       -1.31459
H          2.07084       -2.67428       -0.09254
H         -1.35499       -0.30101        1.04400
H          2.19413       -0.33173        0.09547
H          0.86746       -4.72827        0.57787
H         -1.48016       -4.59485        1.43219
H         -2.56981       -2.35775        1.65063
H          2.03765        4.24790       -0.45096
H          2.64290        1.96790        0.29011
H         -0.20525        4.69178       -1.46732
H         -1.17904        0.50748       -1.09498
H         -1.79905        2.79367       -1.77284
