26
DIPHENYL_CARBONATE.gamout	Energy:    -726.1452481
O          6.43142        2.96125       -1.00882
C          5.61244        4.00363       -1.23833
C          5.93602        1.70064       -0.69045
O          6.41370        5.05836       -1.47181
O          4.41391        3.99426       -1.23599
C          5.89573        6.30892       -1.79295
C          6.63366        1.01751        0.30579
C          6.25258       -0.28144        0.64390
C          4.86086        1.10813       -1.35646
C          4.48791       -0.19149       -1.00414
C          5.17757       -0.88874       -0.00934
C          6.57719        6.99797       -2.79601
C          6.17366        8.28858       -3.13905
C          4.81428        6.88689       -1.12483
C          4.41874        8.17845       -1.48194
C          5.09226        8.88151       -2.48356
H          7.47175        1.51433        0.79693
H          6.79840       -0.81972        1.42223
H          4.31737        1.65464       -2.12518
H          3.64640       -0.66456       -1.51654
H          4.87680       -1.90429        0.25629
H          7.42075        6.51191       -3.28825
H          6.70703        8.83142       -3.92278
H          4.28306        6.33568       -0.35088
H          3.57213        8.64067       -0.96807
H          4.77377        9.89065       -2.75283
