28
DIPHENYL_TRIFLUOROETHANE.gamout	Energy:    -838.5916833
F         -1.20287       -2.71596        0.22475
F          0.95289       -2.81817        0.07306
F         -0.21485       -1.98372       -1.55172
C         -0.02030       -0.68265        0.47076
C         -1.25955        0.15707        0.16269
C          1.30016        0.04862        0.24819
C         -0.11482       -2.05377       -0.20861
C         -1.33569        0.95057       -0.98862
C          1.79855        0.83709        1.29733
C         -2.36485        0.11018        1.02290
C          2.01864        0.01393       -0.95582
C         -2.49066        1.67940       -1.27357
C          2.97145        1.57664        1.15017
C         -3.52104        0.84033        0.74176
C          3.19682        0.75044       -1.10256
C         -3.58667        1.62676       -0.40989
C          3.67651        1.53673       -0.05484
H         -0.06327       -0.93783        1.54038
H         -0.48190        1.00588       -1.66556
H          1.25334        0.87527        2.24428
H         -2.32287       -0.51166        1.92043
H          1.66903       -0.59558       -1.78925
H         -2.53218        2.29451       -2.17529
H          3.33750        2.18157        1.98246
H         -4.37228        0.79597        1.42516
H          3.74327        0.70602       -2.04749
H         -4.48934        2.19997       -0.63193
H          4.59729        2.11204       -0.17508
