23
DIPHENYL_ETHER.gamout	Energy:    -537.7968426
O          4.65224        2.07086        0.50631
C          3.43054        1.98425        1.12790
C          5.83355        2.05834        1.20674
C          3.14258        2.64691        2.32807
C          2.43278        1.26185        0.46459
C          6.04856        1.23439        2.31891
C          6.87005        2.85593        0.71010
C          1.85389        2.57041        2.86104
C          1.14705        1.20061        1.00339
C          7.30310        1.22475        2.93262
C          8.12105        2.83056        1.32733
C          0.85242        1.85014        2.20508
C          8.34272        2.01911        2.44288
H          3.92028        3.21948        2.83594
H          2.68248        0.75991       -0.47188
H          5.24180        0.60457        2.69667
H          6.67644        3.48329       -0.16176
H          1.63040        3.08885        3.79705
H          0.37099        0.63593        0.48123
H          7.47007        0.58064        3.79986
H          8.92746        3.45440        0.93472
H         -0.15316        1.79734        2.62700
H          9.32109        2.00376        2.92701
