23
DIPROPYLENE_GLYCOL.gamout	Energy:    -462.0915122
C          1.20561        0.06576        0.03270
C          0.53046        1.11770        0.91169
C         -0.98806        1.06277        0.85394
O         -1.51336        2.03789        1.71908
C         -2.91762        2.09594        1.74038
C         -3.34878        3.19229        2.70089
C         -4.86565        3.32105        2.83089
O          2.61341        0.16458        0.03332
O         -5.25952        4.38272        3.67274
H          0.86578       -0.94838        0.33373
H          0.89278        0.20058       -1.01696
H          0.87024        2.12030        0.60382
H          0.84252        0.98421        1.96412
H         -1.35217        0.05143        1.14008
H         -1.33650        1.23860       -0.18734
H         -3.34336        1.11626        2.05061
H         -3.31399        2.30114        0.72178
H         -2.92956        4.15513        2.36533
H         -2.90397        2.97873        3.69053
H         -5.29650        2.35228        3.16316
H         -5.30826        3.53721        1.84339
H          2.92287        0.02947        0.93886
H         -4.90246        4.21390        4.55477
