11
DIVINYL_ETHER.gamout	Energy:    -230.8858197
C          1.05831        2.28992        1.58063
C          1.57511        3.46920        1.93950
O          1.69560        1.11267        1.31938
C          2.99681        0.98381        0.93197
C          3.79013        1.87075        0.32340
H         -0.02285        2.13610        1.51275
H          0.88745        4.28672        2.16277
H          2.64425        3.65471        2.04253
H          3.33474       -0.03545        1.14190
H          4.79529        1.55332        0.04053
H          3.48405        2.88681        0.07421
