34
DLCITRONELLOL.gamout	Energy:    -506.9079502
C         -2.86820        2.21086        0.84477
C         -1.56138        2.26162        0.06186
C         -0.64229        3.45393        0.38012
H         -1.79993        2.24366       -1.01742
H         -1.02717        1.31951        0.27286
C          0.71360        3.28911       -0.33761
C          1.80035        4.29465        0.06435
H          0.55034        3.34715       -1.43141
H          1.08083        2.26712       -0.14147
C          3.17207        4.06610       -0.60988
H          1.47149        5.31721       -0.18632
H          1.92958        4.27305        1.16212
C          3.86717        2.78303       -0.23894
H          3.81731        4.92693       -0.37619
H          3.02638        4.08737       -1.70799
C         -1.31086        4.79479        0.04888
H         -0.44173        3.43468        1.46980
H         -2.24894        4.93457        0.60741
H         -1.55160        4.85709       -1.02716
H         -0.66058        5.64792        0.29504
C          5.03519        2.66236        0.41679
C          5.84284        3.85455        0.89387
H          6.76790        3.53287        1.39543
H          5.28041        4.47406        1.61247
H          6.13499        4.51400        0.05934
C          5.64112        1.31028        0.69935
H          6.63385        1.21701        0.22211
H          5.00704        0.48872        0.33460
H          5.80511        1.16559        1.78286
H          3.37124        1.85666       -0.55301
O         -3.50224        0.98066        0.55074
H         -3.51777        3.06797        0.57481
H         -2.64942        2.30650        1.93055
H         -4.34826        0.95671        1.01391
