43
DMIM+1.gamout	Energy:    -658.1211431
C          2.22851        2.36643        3.24897
N          1.46105        2.52192        2.01150
H          3.13281        2.98894        3.20216
H          2.51188        1.31221        3.38543
H          1.61343        2.69115        4.09689
C          0.15558        2.81231        1.92611
N         -0.19742        2.85246        0.63630
H         -0.50710        2.99328        2.77097
C          1.95784        2.36929        0.73274
C         -1.55220        3.12959        0.11509
C         -2.17946        1.92659       -0.59404
H         -1.46965        3.99579       -0.56121
H         -2.16139        3.44561        0.97444
C         -3.60336        2.24509       -1.06919
H         -2.17666        1.06340        0.08969
H         -1.55386        1.64679       -1.45995
C         -4.27187        1.18629       -1.96415
H         -3.57144        3.19429       -1.63286
H         -4.24502        2.44142       -0.19075
C         -4.83464       -0.07492       -1.28572
H         -3.57425        0.89633       -2.77239
H         -5.11128        1.68945       -2.46949
C         -3.82710       -1.12103       -0.78582
H         -5.49816       -0.56471       -2.02055
H         -5.49692        0.22532       -0.45224
C         -4.49933       -2.44074       -0.37984
H         -3.07960       -1.30406       -1.57797
H         -3.26459       -0.73236        0.08376
C         -3.63712       -3.47292        0.36533
H         -4.93122       -2.91409       -1.28131
H         -5.36126       -2.20005        0.26779
C         -2.52813       -4.18076       -0.43111
H         -3.19935       -3.00628        1.26946
H         -4.32702       -4.24576        0.74146
C         -1.21335       -3.41056       -0.58888
H         -2.91588       -4.46551       -1.42681
H         -2.30481       -5.13405        0.07663
C          0.91751        2.57678       -0.12880
H          0.88761        2.55519       -1.21550
H          3.00057        2.13177        0.53782
H         -1.32347       -2.49413       -1.19064
H         -0.45189       -4.03503       -1.08271
H         -0.80859       -3.11601        0.39578
