18
DMPY+1.gamout	Energy:    -326.8471793
C         -2.21500        0.03616       -0.00327
N         -0.74233       -0.08363        0.00338
H         -2.53542        0.56092       -0.91442
H         -2.54127        0.59860        0.88260
H         -2.66156       -0.96430        0.01547
C         -0.14546       -1.29699        0.01538
C          0.01247        1.04350       -0.00664
C          1.23384       -1.41437        0.01480
H         -0.80411       -2.16634        0.02499
C          1.39045        0.97823       -0.00831
H         -0.52940        1.99067       -0.01322
C          2.04640       -0.26892        0.00021
H          1.67370       -2.41281        0.02477
H          1.95877        1.91005       -0.01617
C          3.53990       -0.35162       -0.00404
H          3.89625       -1.38983       -0.00261
H          3.95635        0.16306        0.87831
H          3.95131        0.15842       -0.89133
