21
DMPYR+1.gamout	Energy:    -291.1668564
N          0.67493       -0.00015       -0.00026
C         -0.25649        1.09012       -0.55971
C         -0.25643       -1.09045        0.55969
C         -1.63836        0.76599       -0.00735
C         -1.63878       -0.76510        0.00900
C          1.54073        0.55347        1.08779
C          1.53911       -0.55399       -1.08920
H         -0.23465        1.00340       -1.65371
H          0.14214        2.07338       -0.27970
H         -0.23312       -1.00460        1.65371
H          0.14128       -2.07363        0.27826
H         -2.43055        1.19951       -0.63290
H         -1.76396        1.17066        1.01069
H         -2.43053       -1.19802        0.63545
H         -1.76578       -1.16965       -1.00890
H          2.22253        1.29941        0.66189
H          0.90505        1.01957        1.84993
H          2.11947       -0.26352        1.53677
H          0.90238       -1.02003       -1.85048
H          2.11754        0.26274       -1.53900
H          2.22110       -1.29989       -0.66386
