37
DODECANOATE-1.gamout	Energy:    -620.7828613
O          7.10190       -0.54676       -0.04258
O          5.95128        1.40219       -0.15163
C         -1.71287        0.36638       -0.03007
C         -0.45232       -0.50708        0.02995
C         -3.02973       -0.41801        0.03476
C          0.86572        0.27547       -0.04694
C         -4.28810        0.45872       -0.01464
C          2.13108       -0.59322        0.02024
C         -5.60565       -0.32461        0.03749
C          3.44765        0.19146       -0.06690
C         -6.85991        0.55581       -0.00256
C          4.71605       -0.65758        0.00229
C         -8.16897       -0.23475        0.04021
C          6.07281        0.15845       -0.07234
H         -1.69576        0.96802       -0.95902
H         -1.68567        1.10037        0.79826
H         -0.46946       -1.10253        0.96320
H         -0.48503       -1.24716       -0.79322
H         -3.06044       -1.14580       -0.79878
H         -3.04701       -1.02562        0.95982
H          0.88060        0.86588       -0.98338
H          0.89401        1.02047        0.77180
H         -4.26816        1.07276       -0.93538
H         -4.26044        1.18018        0.82443
H          2.09494       -1.34452       -0.79420
H          2.11287       -1.18013        0.96030
H         -5.63800       -1.04031       -0.80647
H         -5.62694       -0.94385        0.95493
H          3.47350        0.78329       -0.99950
H          3.49372        0.94904        0.73644
H         -6.83849        1.17936       -0.91603
H         -6.83237        1.26643        0.84466
H          4.74101       -1.25024        0.93797
H          4.73331       -1.40681       -0.81384
H         -8.24302       -0.84515        0.95710
H         -9.04528        0.43322        0.01564
H         -8.25313       -0.92326       -0.81862
