49
DODMIM+1.gamout	Energy:    -736.6319289
C          2.56319        3.14703        3.18923
N          1.67830        2.89794        2.04899
H          3.35849        3.84605        2.89360
H          3.00920        2.20189        3.52968
H          1.98086        3.58890        4.00672
C          0.36400        3.15309        1.99888
N         -0.10192        2.80989        0.79215
H         -0.22635        3.58346        2.80541
C          2.06552        2.37189        0.83357
C         -1.48486        3.02481        0.31165
C         -2.13182        1.79666       -0.33198
H         -1.44702        3.85914       -0.40778
H         -2.06309        3.36949        1.18073
C         -3.52342        2.16112       -0.87541
H         -2.18595        0.97182        0.39670
H         -1.49976        1.44506       -1.16613
C         -4.14724        1.18335       -1.88600
H         -3.44032        3.14161       -1.37741
H         -4.21785        2.31865       -0.02943
C         -4.80891       -0.09923       -1.35879
H         -3.39496        0.92621       -2.65605
H         -4.92552        1.75151       -2.41965
C         -3.90587       -1.23259       -0.84753
H         -5.41216       -0.50429       -2.18993
H         -5.54213        0.16550       -0.57387
C         -4.69288       -2.54608       -0.70874
H         -3.06214       -1.37330       -1.54742
H         -3.45681       -0.96792        0.12848
C         -4.01412       -3.73646       -0.01279
H         -5.01801       -2.86148       -1.71761
H         -5.62462       -2.32939       -0.15621
C         -2.77177       -4.34728       -0.68851
H         -3.76820       -3.46790        1.03252
H         -4.77911       -4.52681        0.06457
C         -1.43013       -3.67742       -0.36029
H         -2.92071       -4.37455       -1.78469
H         -2.70309       -5.40471       -0.37882
C         -0.21305       -4.41906       -0.92555
H         -1.33040       -3.60844        0.73983
H         -1.42065       -2.63521       -0.72831
C          1.12849       -3.79260       -0.53512
H         -0.29105       -4.46701       -2.02731
H         -0.23584       -5.46852       -0.57982
H          1.21506       -2.75479       -0.90317
H          1.97351       -4.36251       -0.95137
H          1.25401       -3.76764        0.56140
C          0.95025        2.31953        0.04595
H          0.83094        1.97720       -0.97810
H          3.09173        2.07928        0.62605
