23
DPA+1.gamout	Energy:    -292.3816626
C         -5.65891        1.64723       -0.02383
C         -4.36089        2.42529        0.21888
H         -5.72883        1.29458       -1.06531
H         -6.53021        2.28901        0.17017
H         -5.73464        0.77132        0.64004
C         -3.13224        1.56024       -0.04481
H         -4.33746        2.79273        1.26096
H         -4.33414        3.31395       -0.43759
C         -0.56273        1.55521       -0.06297
C          0.67286        2.41507        0.18329
C          1.96330        1.63287       -0.08406
H          2.01437        1.28455       -1.12804
H          2.04667        0.75354        0.57442
H          2.84014        2.27028        0.09825
H          0.66802        2.77894        1.22680
H          0.63865        3.30621       -0.46956
N         -1.84429        2.31857        0.19459
H         -0.58718        0.67399        0.59579
H         -0.61710        1.20315       -1.10433
H         -1.83700        2.66774        1.16403
H         -3.09435        1.20769       -1.08672
H         -3.10211        0.67896        0.61370
H         -1.84662        3.16828       -0.38799
