18
E-2HEA+1.gamout	Energy:    -288.9834977
C         -6.82043        0.65979       -0.80542
N         -8.09696       -0.11649       -0.53303
C         -8.43346       -1.17365       -1.54841
H         -8.87971        0.54963       -0.45817
C         -9.72791       -1.91747       -1.22062
H         -7.59356       -1.88220       -1.58386
H         -8.51303       -0.68422       -2.52944
O         -9.84256       -2.86772       -2.23476
H         -9.65400       -2.37076       -0.20786
H        -10.57772       -1.20124       -1.20017
H        -10.65244       -3.38551       -2.12612
H         -8.02762       -0.54974        0.39930
C         -6.54017        1.68879        0.27613
H         -6.94977        1.12134       -1.79543
H         -6.01995       -0.09056       -0.88351
H         -7.33620        2.44809        0.34537
H         -5.60775        2.21558        0.02498
H         -6.39686        1.22507        1.26582
