39
E-CARYOPHYLLENE.gamout	Energy:    -585.1482765
C         -0.53602       -0.88284        1.63729
C         -0.11297       -1.84696        2.73297
C         -1.00213       -1.13763        0.39956
C         -0.37100        0.55806        2.07400
C         -0.17838       -3.37435        2.57259
C          0.72024       -4.03304        1.50766
C          1.72035       -3.22348        0.63553
C          1.90129       -4.98957        1.90097
C          1.33188       -2.58042       -0.67714
C          2.62774       -4.48305        0.62747
C         -0.03784       -2.84044       -1.25754
C          2.19831       -1.77291       -1.30465
C         -1.21647       -2.44248       -0.31971
C          1.57087       -6.47577        1.94847
C          2.64070       -4.57484        3.17265
H          0.08877       -4.62113        0.82519
H          2.20934       -2.45859        1.25721
H          0.91578       -1.56155        3.02835
H         -0.71632       -1.59153        3.62545
H         -1.20916       -0.25131       -0.21358
H         -0.71803        1.26480        1.30639
H          0.68767        0.78952        2.29260
H         -0.93305        0.76063        3.00322
H          0.08203       -3.79420        3.55785
H         -1.22524       -3.67345        2.40935
H          3.71610       -4.32272        0.68650
H          2.41455       -5.12613       -0.24120
H         -0.15395       -3.91015       -1.51314
H         -0.12026       -2.28935       -2.20779
H          3.18366       -1.55688       -0.88126
H          1.95739       -1.30274       -2.26219
H         -2.11841       -2.35348       -0.94759
H         -1.43086       -3.25390        0.38334
H          1.05769       -6.80567        1.03134
H          0.91669       -6.71191        2.80509
H          2.48699       -7.08020        2.05494
H          3.58926       -5.12960        3.25837
H          2.88489       -3.50132        3.18633
H          2.05003       -4.79481        4.07686
