11
EA+1.gamout	Energy:    -135.3442588
C         13.66842       -4.65164       -0.52844
C         14.73022       -4.18423        0.44732
H         14.49712       -3.20351        0.88703
N         16.07938       -4.02140       -0.24130
H         14.89557       -4.90027        1.26530
H         13.90563       -5.63841       -0.95763
H         12.71527       -4.75105        0.01225
H         16.03750       -3.32262       -0.99858
H         16.39529       -4.90566       -0.66837
H         16.81347       -3.71932        0.41571
H         13.50783       -3.92978       -1.34527
