19
EMIM+1.gamout	Energy:    -344.0783404
C         -0.21485       -0.35402        0.15394
C          1.30966       -0.32923        0.09845
N          1.86849        1.04093        0.12119
H          1.68888       -0.81169       -0.81427
H          1.75359       -0.86150        0.95286
C          2.19737        1.76985       -0.95202
C          2.59333        3.00502        0.83293
C          2.10623        1.79808        1.25073
C          3.09840        4.05530       -1.41529
H          1.92025        1.42044        2.25320
N          2.64291        2.96608       -0.54635
H          2.11796        1.44273       -1.98726
H          2.91331        3.87459        1.40182
H          3.17521        3.68493       -2.44476
H          4.08722        4.40100       -1.08189
H          2.38339        4.89025       -1.37899
H         -0.66113        0.15093       -0.71720
H         -0.59736        0.12090        1.07093
H         -0.55635       -1.40000        0.14958
