22
EMMIM+1.gamout	Energy:    -383.3459971
C         -1.89813       -0.61020        0.05178
C         -0.75577        0.39041        0.11845
H         -2.82202       -0.06541       -0.19204
H         -2.06276       -1.11771        1.01476
H         -1.74102       -1.36395       -0.73456
N          0.55489       -0.22617        0.43175
H         -0.95211        1.15065        0.89085
H         -0.64941        0.91558       -0.84381
N          2.68927       -0.41441        0.81718
C          2.14277       -1.67824        0.92525
C          0.80647       -1.56094        0.68375
C          4.10791       -0.09883        1.00046
H          4.63899       -1.02708        1.24153
H          4.24087        0.61089        1.82879
H          4.53181        0.32082        0.07703
H          2.74280       -2.55192        1.16413
H          0.02990       -2.31799        0.67422
C          1.71119        0.46256        0.51679
C          1.86298        1.92518        0.30937
H          1.23574        2.49218        1.01688
H          1.56077        2.21361       -0.71086
H          2.90396        2.23687        0.45639
