25
EMMOR+1.gamout	Energy:    -405.5401027
C         -2.70624        1.10939        1.08194
C         -1.41410        1.68455       -0.76477
C         -1.24877        0.22476       -1.18611
C         -2.62402       -0.38358        0.76966
N         -1.37730       -0.74888       -0.02062
H         -3.47888       -0.67735        0.14468
H         -2.62988       -0.98593        1.68639
H         -0.27478        0.04308       -1.66075
H         -2.04380       -0.04079       -1.89600
C         -0.15410       -0.67854        0.84314
H          0.70946       -1.02251        0.26053
H         -0.29135       -1.31671        1.72226
H          0.01338        0.35232        1.16824
C         -1.51729       -2.15499       -0.60584
C         -1.64096       -3.29735        0.39173
H         -2.40208       -2.11276       -1.25606
H         -0.63721       -2.28742       -1.25139
H         -2.52737       -3.21258        1.03778
H         -0.74737       -3.42769        1.01948
H         -1.75910       -4.22398       -0.19073
O         -2.63284        1.87794       -0.09261
H         -1.93008        1.41640        1.81137
H         -3.68326        1.30231        1.54812
H         -0.55916        2.03552       -0.15295
H         -1.43099        2.29680       -1.67798
