27
EMPIP+1.gamout	Energy:    -369.6891568
C         -2.37742       -2.05758       -0.86168
C         -2.59300        0.43642       -0.65114
C         -1.08531       -2.00321       -0.05376
C         -1.29509        0.46020        0.14832
N         -0.34029       -0.68364       -0.17791
H         -0.38960       -2.79575       -0.35412
H         -1.29699       -2.12096        1.01895
H         -1.50810        0.36523        1.22247
H         -0.73289        1.39089       -0.00575
C          0.79985       -0.62478        0.83653
C          1.88609       -1.68275        0.70967
H          2.43512       -1.63211       -0.24188
H          1.51187       -2.70637        0.85583
H          2.61750       -1.49175        1.50970
H          1.22535        0.38417        0.73582
H          0.31835       -0.68333        1.82257
C         -3.31680       -0.90378       -0.50811
H         -2.84702       -3.02840       -0.64113
H         -2.16166       -2.06954       -1.94339
H         -3.67489       -1.02261        0.53006
H         -4.20799       -0.92603       -1.15053
H         -2.40536        0.67057       -1.71226
H         -3.21398        1.26150       -0.26995
C          0.20763       -0.51194       -1.55719
H         -0.60989       -0.46117       -2.28125
H          0.78719        0.41812       -1.59317
H          0.85222       -1.36309       -1.79839
