21
EMPY+1.gamout	Energy:    -366.1040980
C         -3.47332        1.76649        0.01571
C         -3.26556        0.26370        0.06893
H         -3.09264        2.21448       -0.91497
H         -3.03503        2.28636        0.88131
H         -4.55792        1.94983        0.04344
N         -1.83689       -0.20883        0.02862
H         -3.76640       -0.22780       -0.77884
H         -3.69036       -0.15348        0.99463
C         -1.62897       -1.54580        0.05107
C         -0.79271        0.64841       -0.01170
C         -0.34273       -2.05842        0.02864
H         -2.51662       -2.17847        0.09738
C          0.53135        0.20448       -0.03523
H         -1.03292        1.70975       -0.01700
C          0.74295       -1.18261       -0.01694
H         -0.20021       -3.13956        0.05281
H          1.76173       -1.57873       -0.03048
C          1.67310        1.18136       -0.07194
H          1.32133        2.22171       -0.08005
H          2.29447        1.02328       -0.96894
H          2.32985        1.04696        0.80325
