24
EMPYR+1.gamout	Energy:    -330.4255439
C         -1.77662       -1.19267       -0.47300
C         -0.88442       -0.04977       -0.96051
C          0.01650       -0.74499       -1.97274
H         -0.29730        0.37560       -0.12997
H         -1.44085        0.77604       -1.42556
C         -0.78964       -2.34091       -0.30225
H         -2.54454       -1.43940       -1.22451
H         -2.29837       -0.97123        0.46871
N          0.27383       -2.14764       -1.40328
H         -1.22347       -3.34328       -0.40107
H         -0.26978       -2.28303        0.66292
H          0.97777       -0.25142       -2.15645
H         -0.49867       -0.87287       -2.93335
C          1.64087       -2.22126       -0.80065
H          1.73673       -1.43484       -0.04269
H          2.39625       -2.07289       -1.57924
H          1.77444       -3.20482       -0.33246
C          0.09514       -3.21973       -2.46781
C          1.02967       -3.13282       -3.66459
H         -0.95481       -3.14238       -2.78312
H          0.21771       -4.18018       -1.94734
H          0.95970       -2.17278       -4.19822
H          2.08199       -3.32019       -3.40545
H          0.73175       -3.91822       -4.37596
