27
EPHEDRINE_SULFATE.gamout	Energy:    -519.3525616
O         -0.02309       -1.34135        3.09929
N         -1.87094       -0.51224        0.05196
C         -1.49225       -0.39912        1.45778
C         -0.21607       -1.24816        1.69698
C          1.00562       -0.68075        0.99038
C         -2.61463       -0.77841        2.43335
C          1.88847        0.16627        1.67427
C          1.25886       -0.97062       -0.35745
C         -2.62425        0.59941       -0.49671
C          3.00513        0.70372        1.02909
C          2.37018       -0.42946       -1.00573
C          3.25025        0.40749       -0.31339
H         -1.21598        0.65563        1.63348
H         -0.42634       -2.25211        1.27055
H         -2.30678       -0.62172        3.47557
H         -3.51555       -0.17487        2.23869
H         -2.88552       -1.84333        2.32071
H         -2.37048       -1.38835       -0.10107
H          1.69081        0.39912        2.72254
H          0.56263       -1.60968       -0.90240
H          0.78272       -1.85035        3.26114
H         -2.87644        0.38928       -1.54787
H         -2.00598        1.51242       -0.48728
H         -3.57382        0.83537        0.03272
H          3.68495        1.35970        1.57846
H          2.55429       -0.66680       -2.05655
H          4.12390        0.82668       -0.81831
