51
EPIGALLOCATECHIN_GALLATE.gamout	Energy:   -1674.5315244
O         -1.10583       -2.11238       -0.45528
O          0.31726       -0.04049        0.84913
O          2.36637       -4.01668        2.19792
O          1.67746       -5.51237       -2.27134
O         -3.13246        1.97777       -2.62899
O         -5.61412        1.44504        1.29933
O          0.37176        1.42035        2.57055
O         -5.17478        2.66595       -1.06567
O          3.57896        1.79960       -2.53569
O          3.37455        5.16059        0.70907
O          4.28704        4.21618       -1.59851
C         -0.51696       -0.93366        1.59545
C         -1.63968       -1.42881        0.67577
C          0.30003       -2.12527        2.08604
C          0.63264       -3.04565        0.94074
C         -2.58035       -0.35471        0.18390
C         -0.07620       -2.97928       -0.26506
C          1.69064       -3.96820        1.01862
C          0.25191       -3.78842       -1.36090
C         -3.66859        0.02632        0.97817
C         -2.37012        0.28416       -1.04029
C          2.03234       -4.78993       -0.05687
C          1.30829       -4.69377       -1.25208
C          0.72636        1.09495        1.45877
C         -3.24308        1.29324       -1.44690
C         -4.54249        1.04134        0.57121
C         -4.33193        1.68781       -0.65681
C          1.65648        1.88794        0.61811
C          2.04741        3.14595        1.09879
C          2.15704        1.41854       -0.60418
C          3.04548        2.19405       -1.35181
C          2.92395        3.91910        0.34908
C          3.43232        3.46023       -0.87911
H         -0.95064       -0.38728        2.44065
H         -2.22270       -2.15000        1.27936
H         -0.27829       -2.64791        2.86936
H          1.21745       -1.76935        2.57448
H         -0.33725       -3.69385       -2.27420
H         -3.85037       -0.48097        1.93048
H         -1.53889       -0.01792       -1.67828
H          2.85245       -5.50749        0.01173
H          3.08614       -4.65699        2.12678
H          1.09583       -5.36201       -3.02792
H          1.64957        3.48927        2.05589
H          1.85688        0.43122       -0.96013
H         -2.33734        1.70459       -3.10278
H         -5.64252        0.94714        2.12582
H         -4.85085        2.97405       -1.92592
H          3.26934        0.90839       -2.74172
H          3.00206        5.41949        1.56136
H          4.42914        5.03738       -1.10180
