19
EPSILON-CAPROLACTAM.gamout	Energy:    -364.7608732
C         -6.22727        0.42724        0.38518
C         -5.05237        1.39235        0.71575
C         -5.84151       -0.87600       -0.32927
C         -3.67821        0.72780        0.75650
N         -3.21785        0.28244       -0.45798
O         -3.03034        0.59468        1.78000
C         -3.99093        0.28639       -1.68799
C         -5.16478       -0.71613       -1.69685
H         -6.97770        0.96907       -0.21544
H         -6.73173        0.15259        1.32478
H         -5.19813        1.84826        1.70285
H         -5.02136        2.21418       -0.01830
H         -6.74769       -1.49121       -0.45289
H         -5.17692       -1.45824        0.33197
H         -2.33805       -0.22205       -0.41730
H         -3.30366        0.07817       -2.52155
H         -4.37463        1.30493       -1.86570
H         -5.89788       -0.38330       -2.45255
H         -4.80767       -1.70691       -2.02474
