18
ERYTHRITOL.gamout	Energy:    -458.7269493
O          1.19888        1.54474        5.48755
C          0.91794        1.19581        4.13824
C          2.12103        1.66174        3.32920
O          3.30634        1.12118        3.89195
C          2.05713        1.25550        1.85852
O          0.91337        1.90083        1.32818
C          3.33231        1.64497        1.09418
O          4.42983        0.83395        1.41315
H          0.56451        1.10664        6.06713
H          0.80268        0.09974        4.02271
H          0.00462        1.68472        3.75690
H          2.14655        2.77046        3.36855
H          3.21108        1.21958        4.85251
H          1.96907        0.15003        1.80712
H          0.80359        1.61731        0.41173
H          3.13403        1.52475        0.01356
H          3.52858        2.72704        1.25882
H          4.49443        0.84083        2.38276
