44
ESTRADIOL.gamout	Energy:    -849.6697577
O          5.04810        1.21385        0.20577
O         -5.88918        0.15626        0.32773
C          2.68968        0.57946        0.14030
C          1.99840       -0.71541       -0.34987
C          0.52197       -0.80084        0.05561
C         -0.22947        0.42083       -0.53537
C          4.11437        0.34329       -0.39882
C          1.94974        1.77996       -0.45951
C          2.98791       -1.83404        0.02788
C          0.44437        1.75090       -0.13473
C          4.38154       -1.16752       -0.13954
C         -0.18454       -2.08595       -0.38556
C          2.74698        0.70890        1.67111
C         -1.73670        0.36535       -0.26208
C         -1.60326       -2.14769        0.18260
C         -2.38280       -0.85683        0.03188
C         -2.53771        1.51381       -0.35886
C         -3.76914       -0.88881        0.22409
C         -3.91852        1.48169       -0.16654
C         -4.54771        0.26744        0.12925
H          2.01083       -0.65185       -1.45626
H          0.45520       -0.74784        1.15897
H         -0.10351        0.33457       -1.63510
H          4.09024        0.52234       -1.49323
H          2.08105        1.76557       -1.55674
H          2.39281        2.72353       -0.10387
H          2.87051       -2.72747       -0.60386
H          2.83407       -2.16098        1.06958
H          0.28295        1.93552        0.94126
H         -0.03539        2.59183       -0.65743
H          4.99463       -1.26809        0.77043
H          4.95727       -1.61391       -0.96550
H          0.37329       -2.97520       -0.05442
H         -0.21136       -2.12612       -1.49111
H          3.33901        1.59521        1.93508
H          1.74819        0.81631        2.11324
H          3.22884       -0.15605        2.14872
H         -1.54858       -2.39452        1.26033
H         -2.16345       -2.97529       -0.28075
H          5.90838        1.07232       -0.20837
H         -2.07874        2.47416       -0.59702
H         -4.27242       -1.83086        0.45366
H         -4.50419        2.40232       -0.24828
H         -6.29785        1.02590        0.22694
