45
ESTRIOL.gamout	Energy:    -924.7973881
O         -4.73347        1.53860       -0.16152
O         -5.22271       -1.47016        0.54399
O          6.14431       -0.01217       -0.32725
C         -2.38796        0.78703       -0.16894
C         -1.77028       -0.56543        0.27168
C         -0.28834       -0.70087       -0.09727
C          0.50346        0.45785        0.56224
C         -3.83517        0.56104        0.30039
C         -1.61844        1.91903        0.52151
C         -2.80171       -1.62703       -0.17176
C         -4.16282       -0.87139       -0.18017
C         -0.10688        1.83890        0.24019
C          0.34398       -2.03195        0.32222
C         -2.38527        1.00945       -1.69028
C          2.00700        0.35023        0.28583
C          1.77439       -2.14953       -0.20680
C          2.60237       -0.89096       -0.03406
C          2.85187        1.46539        0.39488
C          3.98554       -0.97470       -0.23235
C          4.22946        1.38131        0.19664
C          4.80947        0.14816       -0.12080
H         -1.80491       -0.54804        1.37842
H         -0.18408       -0.61512       -1.19592
H          0.37161        0.31330        1.65516
H         -3.82868        0.54239        1.41431
H         -1.79007        1.85286        1.61107
H         -2.00515        2.89910        0.20240
H         -2.57753       -2.03618       -1.17094
H         -2.84464       -2.48772        0.51390
H         -4.54986       -0.79519       -1.20791
H          0.09874        2.09126       -0.81392
H          0.39197        2.61749        0.83643
H         -0.24895       -2.88280       -0.04677
H          0.33757       -2.10341        1.42632
H         -1.37427        1.18570       -2.07931
H         -2.80239        0.15746       -2.24602
H         -3.00280        1.88723       -1.92362
H          1.74425       -2.39608       -1.28521
H          2.28770       -2.99679        0.27512
H         -5.62835        1.22374        0.02980
H         -4.95824       -1.53813        1.47248
H          2.43210        2.43969        0.64779
H          4.44968       -1.93157       -0.48184
H          4.85176        2.27649        0.29008
H          6.58783        0.83908       -0.21693
