9
ETHANOL_GAUCHE.gamout	Energy:    -154.8282292
C          1.08537        0.89380        0.96118
C          1.92533        2.05165        1.49021
O          3.29077        1.72067        1.64388
H          0.01965        1.16991        0.89783
H          1.18081        0.01394        1.61736
H          1.41156        0.59723       -0.05170
H          1.79193        2.94191        0.83999
H          1.57093        2.34179        2.49352
H          3.64024        1.48180        0.77491
