8
ETHANE.gamout	Energy:     -79.7064709
H          0.53702        1.77046       -0.00702
C          0.71747        0.89801        0.64286
H          0.48660       -0.00425        0.05213
H         -0.01363        0.94619        1.46693
C          2.15323        0.87440        1.16545
H          2.33435        0.00061        1.81333
H          2.88451        0.82900        0.34141
H          2.38311        1.77543        1.75844
