9
ETHANOL_ANTI.gamout	Energy:    -154.8279691
C          1.13245        0.90550        0.97149
C          1.82652        2.13539        1.52807
O          3.20060        1.83899        1.68554
H          0.05527        1.09043        0.83337
H          1.25754        0.05169        1.65630
H          1.56789        0.62515       -0.00101
H          1.67274        2.99193        0.83796
H          1.36030        2.41955        2.49540
H          3.64260        2.62062        2.03955
