31
ETHACRYNIC_ACID.gamout	Energy:   -1722.4409133
Cl         1.35275        2.86206       -0.09737
Cl        -1.79717        2.83797       -0.07344
O         -2.96016        0.23683       -0.10392
O          3.25331        0.62418       -1.24831
O         -5.97547       -1.61764       -0.02686
O         -5.62835        0.60772       -0.04450
C          1.21529        0.13220       -0.14047
C          3.54411       -0.67807        0.69838
C          2.72028        0.08217       -0.29847
C          4.98104       -0.93702        0.30968
C          0.50001        1.34855       -0.13404
C          0.48861       -1.06171       -0.12104
C         -1.61661        0.13405       -0.11258
C         -0.90071        1.35471       -0.10983
C         -0.90730       -1.07342       -0.11755
C          5.90674        0.25903        0.58190
C          3.04474       -1.01359        1.90033
C         -3.74169       -0.92225       -0.08258
C         -5.20299       -0.51186       -0.04992
H          5.02226       -1.18116       -0.76392
H          5.34434       -1.81948        0.86086
H          1.02748       -2.01153       -0.12306
H         -1.43018       -2.02910       -0.12003
H          6.93928        0.02519        0.27855
H          5.57707        1.14321        0.01681
H          5.91627        0.51776        1.65319
H          3.66551       -1.52281        2.64297
H          2.02056       -0.77114        2.18857
H         -3.58038       -1.55590       -0.97542
H         -3.53800       -1.55000        0.80563
H         -6.90174       -1.32016       -0.00751
