9
ETHANETHIOL.gamout	Energy:    -477.7225638
C          0.92107        0.93856        1.64418
C          2.06387        1.93282        1.81204
S          3.70470        1.30917        1.26429
H         -0.02108        1.36156        2.03408
H          0.76000        0.69030        0.58198
H          1.12675       -0.00044        2.18141
H          1.85093        2.88106        1.29335
H          2.21760        2.17798        2.87518
H          3.37146        1.12315       -0.03521
