19
ETHOXYETHYLSULFATE-1.gamout	Energy:    -931.2871295
O         -2.40407        0.57406        2.46328
C         -3.38624        1.30258        3.13709
C         -1.16688        1.24827        2.34376
C         -0.18258        0.36400        1.59941
H         -0.75721        1.49648        3.34558
H         -1.29415        2.20640        1.79803
O          1.03169        1.06080        1.53390
H         -0.07109       -0.60045        2.13222
H         -0.57615        0.14059        0.58834
S          2.26988        0.25351        0.61954
O          2.40225       -1.05478        1.30184
O          3.38906        1.19154        0.80777
O          1.69923        0.18063       -0.74635
C         -4.66202        0.48069        3.18226
H         -3.05446        1.55402        4.17045
H         -3.57425        2.27647        2.63046
H         -4.48540       -0.47596        3.69971
H         -5.00710        0.25228        2.16113
H         -5.46242        1.02319        3.71169
