18
ETHYLBENZENE.gamout	Energy:    -310.4458794
C          5.30538        0.80277        2.04247
C          4.94891        1.90966        1.03798
C          3.56733        2.48477        1.25508
C          3.37281        3.60657        2.07378
C          2.43894        1.88619        0.67468
C          2.09278        4.11462        2.30835
C          1.15710        2.38979        0.90536
C          0.97867        3.50780        1.72397
H          6.31424        0.40342        1.85116
H          4.58936       -0.03298        1.98235
H          5.27830        1.18360        3.07640
H          5.02097        1.50815        0.01284
H          5.69665        2.71782        1.10794
H          4.23946        4.09109        2.53235
H          2.56757        1.01440        0.02656
H          1.96653        4.99211        2.94739
H          0.29324        1.91003        0.43878
H         -0.02308        3.90647        1.90127
