20
ETHYL_ISOBUTYRATE.gamout	Energy:    -385.8159495
O         34.21139       29.60832        0.70453
C         35.08409       29.44902       -0.31321
C         36.37428       30.21303       -0.06756
O         34.85260       28.77172       -1.28579
C         32.94341       28.93746        0.60270
C         36.11214       31.72126        0.04212
C         37.10232       29.67213        1.17124
C         31.93301       29.75559       -0.18465
H         36.98709       30.01768       -0.96098
H         33.09945       27.95302        0.13661
H         32.61687       28.79935        1.64371
H         37.06307       32.26566        0.14960
H         35.60273       32.10749       -0.85451
H         35.48484       31.95002        0.91744
H         38.06808       30.18531        1.29963
H         37.30275       28.59324        1.08076
H         36.50193       29.83441        2.07963
H         30.95565       29.24618       -0.18315
H         31.79979       30.75414        0.26062
H         32.25354       29.87353       -1.23034
