20
ETHYL_BUTYRATE.gamout	Energy:    -385.8155483
C          5.10226        2.79581        1.90550
C          3.61613        2.87173        1.63305
O          2.92757        2.02506        2.42877
O          3.09785        3.56917        0.79438
C          5.77914        1.68290        1.08483
C          1.50371        1.95144        2.23907
C          7.29087        1.62324        1.30087
C          1.12318        0.99906        1.11649
H          5.53141        3.77388        1.63927
H          5.26495        2.61962        2.98059
H          5.32237        0.71439        1.35283
H          5.55846        1.84576        0.01556
H          1.11834        2.96261        2.03664
H          1.11113        1.60502        3.20636
H          7.74536        0.81512        0.70645
H          7.77683        2.56841        1.00536
H          7.54018        1.43895        2.35956
H          1.53106       -0.00877        1.29534
H          0.02580        0.91746        1.05257
H          1.49453        1.36607        0.14804
