15
ETHYLCYCLOPROPANE.gamout	Energy:    -196.2397167
C          2.06217        0.96022        1.05526
C          0.74007        1.34718        1.72374
C          3.13950        2.01603        1.20098
C          3.99256        2.07260        2.44397
C          4.59911        1.64867        1.12809
H          2.42929        0.00991        1.48359
H          1.88973        0.76327       -0.01875
H         -0.02273        0.56210        1.59633
H          0.33403        2.27807        1.29311
H          0.87423        1.51532        2.80526
H          2.87329        2.98799        0.76604
H          3.83528        1.30184        3.20587
H          4.26469        3.05084        2.85053
H          5.28751        2.33540        0.62713
H          4.85357        0.59142        0.99923
