21
ETHYL_BENZOATE.gamout	Energy:    -498.7907912
C          0.75875        0.69810       -0.00108
C         -0.64537        0.19092       -0.00004
C         -1.68075        1.13706        0.00210
C         -3.01076        0.72075        0.00275
C         -3.31519       -0.64464        0.00115
C         -2.28629       -1.59129       -0.00111
C         -0.95355       -1.17780       -0.00379
O          1.06135        1.87053       -0.00325
O          1.66848       -0.29320        0.00138
C          3.04621        0.10855       -0.00129
C          3.89837       -1.14144        0.00329
H         -1.41551        2.19559        0.00350
H         -3.81430        1.46096        0.00434
H         -4.35806       -0.97161        0.00161
H         -2.52514       -2.65751       -0.00218
H         -0.14418       -1.90828       -0.00565
H          3.23253        0.73546       -0.88897
H          3.23369        0.74266        0.88098
H          4.96532       -0.86873        0.00148
H          3.70176       -1.75309        0.89805
H          3.70065       -1.76064       -0.88605
