10
ETHYLENE_CARBONATE.gamout	Energy:    -341.9730333
O         -0.01188       -1.11152        0.01901
C          0.77404       -0.00567       -0.01157
C         -1.39054       -0.76458        0.04158
C         -1.38004        0.78214        0.04242
O          0.00259        1.11070       -0.00348
O          1.96171       -0.01374       -0.04108
H         -1.85675       -1.19011        0.94366
H         -1.88592       -1.18851       -0.84583
H         -1.82520        1.21239        0.95309
H         -1.88454        1.21419       -0.83563
