58
ETHYL_INOLEATE.gamout	Energy:    -932.9524414
C         -0.44399       -0.17155       -0.81411
O         -0.99385        0.85670       -1.12741
O         -1.09839       -1.22199       -0.27994
C          1.04527       -0.42899       -0.93776
C         -2.51328       -1.06583       -0.09091
C         -3.07876       -2.39094        0.37429
H         -2.96702       -0.73181       -1.03791
H         -2.68769       -0.26348        0.64587
H          1.48312       -0.25861        0.06380
H          1.44061        0.36357       -1.59116
C          1.44383       -1.82481       -1.43830
H          1.00376       -1.99156       -2.43827
H          0.99535       -2.58450       -0.77709
C          2.96389       -2.02045       -1.51056
H          3.40699       -1.78426       -0.52416
H          3.39200       -1.28094       -2.21357
C          3.40226       -3.43102       -1.93194
H          2.95181       -3.67817       -2.91206
H          2.98804       -4.16706       -1.21737
C          4.92603       -3.60792       -2.02110
H          5.38216       -3.31289       -1.05681
H          5.32908       -2.89929       -2.76918
C          5.38306       -5.03003       -2.37520
H          4.92945       -5.33524       -3.33714
H          4.99657       -5.74031       -1.62145
C          6.91306       -5.18210       -2.46952
H          7.36857       -4.86658       -1.51661
H          7.28917       -4.47336       -3.23348
C          7.35092       -6.57301       -2.84062
C          8.19966       -7.38018       -2.18782
C          8.96439       -7.09208       -0.91914
H          8.64685       -7.82294       -0.14797
H          8.71258       -6.09933       -0.52142
C         10.45452       -7.23457       -1.11446
H          6.89819       -6.96768       -3.75982
H          8.38929       -8.36803       -2.62704
C         11.40643       -6.31643       -0.89430
C         11.24806       -4.90657       -0.39346
H         10.18815       -4.67423       -0.19901
H         11.56699       -4.21028       -1.19412
C         12.07471       -4.60584        0.87196
H         13.13698       -4.84715        0.67782
H         11.75561       -5.28923        1.68031
C         11.96374       -3.15296        1.35392
H         10.77955       -8.21193       -1.49374
H         12.44241       -6.61830       -1.09717
H         10.90039       -2.91624        1.54967
H         12.27332       -2.47511        0.53556
C         12.78824       -2.83758        2.60857
H         13.85197       -3.06586        2.41031
H         12.48402       -3.51826        3.42534
C         12.65913       -1.38755        3.08031
H         11.61267       -1.13394        3.32200
H         12.99754       -0.67971        2.30437
H         13.26228       -1.20459        3.98321
H         -2.62639       -2.70825        1.32735
H         -2.89832       -3.18175       -0.37102
H         -4.16622       -2.30086        0.52459
