27
ETHYLCYCLOHEPTANE.gamout	Energy:    -353.2927985
C          4.26942        4.12795        1.11639
C          5.75571        3.77049        1.25321
C          3.26875        3.32492        1.97145
C          3.17748        1.86533        1.47721
C          1.88612        4.01233        1.95864
C          4.20897        0.87206        2.03973
C          5.65994        1.36999        2.16108
C          6.14572        2.30143        1.04177
C          0.90116        3.51216        3.01812
H          4.16301        5.19964        1.35769
H          3.96719        4.02757        0.05607
H          6.31775        4.39538        0.53859
H          6.10661        4.07408        2.25768
H          3.62493        3.32947        3.02109
H          2.17792        1.45766        1.69770
H          3.24591        1.88173        0.37444
H          1.43947        3.89795        0.95238
H          2.03239        5.09730        2.10123
H          3.87951        0.53261        3.03736
H          4.18826       -0.02709        1.39885
H          5.79361        1.89846        3.12254
H          6.31955        0.48861        2.21882
H          7.24631        2.25005        0.99541
H          5.78770        1.94531        0.05776
H          1.30032        3.66061        4.03610
H          0.67314        2.43901        2.90806
H         -0.05517        4.05542        2.95474
