19
ETHYL_ISOPROPYL_KETONE.gamout	Energy:    -310.6650189
C          0.51733       -1.73597        1.19052
C          1.99859       -1.71193        0.81534
C          0.31501       -1.63461        2.71442
C         -0.26245       -0.64554        0.44350
O          0.30350        0.16516       -0.25824
C         -1.78049       -0.62955        0.59417
C         -2.47270        0.39251       -0.30217
H          0.07740       -2.69825        0.86288
H          2.13849       -1.81027       -0.27096
H          2.46337       -0.75958        1.11551
H          2.53506       -2.53417        1.31351
H          0.67648       -0.66492        3.09599
H         -0.73984       -1.74614        3.00603
H          0.88401       -2.42625        3.22611
H         -2.15109       -1.65359        0.40241
H         -2.01513       -0.43960        1.65708
H         -3.56311        0.36503       -0.15615
H         -2.11750        1.41088       -0.08402
H         -2.25875        0.19800       -1.36422
