56
ETHYLPALMITATE.gamout	Energy:    -856.8911237
C         -0.19372       -0.12187       -0.29939
O         -1.04908        0.43755       -0.94194
O         -0.41161       -1.26902        0.37375
C          1.22886        0.37393       -0.13115
C         -1.73085       -1.82742        0.27936
C         -1.73761       -3.14508        1.02534
H         -1.99283       -1.95297       -0.78404
H         -2.45536       -1.11075        0.70136
H          1.27593        0.88993        0.84632
H          1.37959        1.14784       -0.89895
C          2.32050       -0.70390       -0.20038
H          2.17644       -1.31150       -1.11221
H          2.19654       -1.39796        0.64738
C          3.73780       -0.11876       -0.19944
H          3.86772        0.52558        0.69075
H          3.85308        0.55319       -1.07069
C          4.85229       -1.17446       -0.23100
H          4.69846       -1.83594       -1.10459
H          4.76284       -1.82802        0.65698
C          6.26803       -0.58378       -0.29184
H          6.41947        0.09185        0.57126
H          6.35197        0.05828       -1.18906
C          7.39030       -1.63133       -0.32063
H          7.22183       -2.31831       -1.17157
H          7.32827       -2.26071        0.58722
C          8.80032       -1.03273       -0.43030
H          8.96871       -0.33939        0.41549
H          8.85648       -0.40789       -1.34180
C          9.92926       -2.07311       -0.46595
H          9.75097       -2.77236       -1.30483
H          9.88695       -2.69082        0.45108
C         11.33409       -1.46805       -0.60613
H         11.51240       -0.76529        0.22982
H         11.37218       -0.85258       -1.52494
C         12.46780       -2.50353       -0.64771
H         12.28509       -3.20779       -1.48147
H         12.43553       -3.11677        0.27279
C         13.86990       -1.89500       -0.80146
H         14.05203       -1.18811        0.03019
H         13.90029       -1.28387       -1.72346
C         15.00572       -2.92841       -0.84430
H         14.82226       -3.63494       -1.67601
H         14.97590       -3.53974        0.07761
C         16.40730       -2.32187       -1.00060
H         16.59325       -1.61432       -0.17013
H         16.44077       -1.71287       -1.92408
C         17.53685       -3.35832       -1.04006
H         17.35248       -4.06538       -1.87015
H         17.50269       -3.96671       -0.11724
C         18.93026       -2.74498       -1.19440
H         19.16410       -2.06208       -0.35967
H         19.01308       -2.16267       -2.12799
H         19.71080       -3.52169       -1.21650
H         -1.48346       -3.00254        2.08756
H         -1.01104       -3.84880        0.58923
H         -2.73796       -3.60272        0.96980
