15
ETHYL_CYANOACETATE.gamout	Energy:    -399.4073380
C         -0.35829        0.20120       -0.07919
C          1.11277        0.53820       -0.21180
O          1.27927        1.91138        0.17957
C          2.44230        2.57561        0.12945
O          2.49618        3.73853        0.41500
C          3.70408        1.81246       -0.33216
C          4.13881        0.75539        0.58036
N          4.47494       -0.08052        1.30910
H         -0.53010       -0.84666       -0.37042
H         -0.69405        0.33227        0.96068
H         -0.97131        0.84919       -0.72437
H          1.44904        0.40429       -1.25539
H          1.72385       -0.11268        0.43387
H          3.54710        1.37709       -1.33337
H          4.49824        2.56780       -0.41518
