10
ETHYLENE_DICYANIDE.gamout	Energy:    -263.9476306
C          3.30975        1.03785        0.91914
C          1.92861        1.73446        0.88558
C          0.83123        0.76552        0.86014
C          4.40676        2.00716        0.94414
N         -0.02388       -0.01551        0.83977
N          5.26150        2.78861        0.96282
H          3.38777        0.39035        1.80746
H          3.42965        0.38805        0.03716
H          1.80878        2.38394        1.76781
H          1.85077        2.38232       -0.00249
