7
ETHYLENE_OXIDE.gamout	Energy:    -153.5826164
C          0.60496        0.48338        0.92350
O          1.51645        1.57043        0.93116
C          2.05817        0.25974        0.91298
H          0.03701        0.32771        1.85155
H          0.02673        0.34910       -0.00155
H          2.55592       -0.04032       -0.01992
H          2.56583       -0.06174        1.83330
