22
ETHYLENE_GLYCOL_DIETHYL_ETHER.gamout	Energy:    -386.9672968
C         70.02813        9.93752       -0.00642
C         68.64092        9.32295       -0.00651
O         68.78041        7.92768       -0.00655
O         69.88826       11.33268       -0.00666
C         67.55984        7.22793       -0.00669
C         71.10871       12.03249       -0.00660
C         67.84617        5.73920       -0.00724
C         70.82220       13.52114       -0.00732
H         70.58723        9.58582        0.88616
H         70.58747        9.58549       -0.89873
H         68.08182        9.67496       -0.89896
H         68.08173        9.67488        0.88592
H         66.95654        7.50749        0.88414
H         66.95638        7.50817       -0.89718
H         71.71185       11.75303        0.88436
H         71.71239       11.75222       -0.89694
H         66.90683        5.16379       -0.00668
H         68.42718        5.45588       -0.89900
H         68.42842        5.45559        0.88362
H         71.76144       14.09668       -0.00657
H         70.24134       13.80433       -0.89921
H         70.23971       13.80472        0.88340
