21
ETHYL_TERT-BUTYL_ETHER.gamout	Energy:    -311.8524204
O          2.16721        0.93526        0.68570
C          0.94586        1.04662       -0.05623
C          3.39912        1.12103        0.02655
C          0.84015       -0.06441       -1.11230
C          0.81239        2.43090       -0.70786
C         -0.13556        0.86016        1.00792
C          4.50781        0.78672        1.00980
H          3.51375        2.16655       -0.32421
H          3.48158        0.47197       -0.86788
H          1.56362        0.07071       -1.93122
H         -0.16493       -0.07436       -1.56322
H          1.01973       -1.04701       -0.64896
H          1.56230        2.58892       -1.49805
H          0.93657        3.22255        0.04780
H         -0.18139        2.54733       -1.16883
H         -0.00903       -0.11461        1.50265
H         -1.14293        0.90545        0.56631
H         -0.04840        1.64256        1.77673
H          4.40538        1.39697        1.92106
H          5.49644        0.98415        0.56556
H          4.46056       -0.27329        1.30516
