22
ETHYL_VANILLIN.gamout	Energy:    -573.8876231
C          3.83292        3.14849        1.51833
C          3.20389        4.38461        1.59209
C          3.05614        1.99612        1.22410
O          5.16252        3.04482        1.79064
C          1.81935        4.50948        1.38033
C          1.06343        3.36996        1.08108
C          1.16768        5.83217        1.46905
C          1.67895        2.12177        1.00234
O          3.69832        0.80566        1.17949
C          6.03373        2.73536        0.69820
C          7.44732        2.67681        1.23591
O          1.73252        6.87372        1.71905
H          3.79511        5.27099        1.82845
H         -0.01283        3.46111        0.91203
H          0.06126        5.80893        1.28051
H          1.09161        1.22650        0.77628
H          3.06472        0.10185        0.98596
H          5.74183        1.77185        0.24663
H          5.93737        3.51842       -0.07800
H          7.53682        1.89448        2.00586
H          7.73213        3.63872        1.69026
H          8.15707        2.44991        0.42475
