10
ETHYLAMINE.gamout	Energy:    -134.9789158
C          0.01290       -0.56729        0.04782
C         -1.26974        0.25420       -0.01909
N          1.18606        0.29408       -0.08045
H         -0.00022       -1.18185        0.97659
H          0.02779       -1.28737       -0.79009
H         -1.32561        0.97132        0.81907
H         -1.31029        0.83183       -0.95625
H         -2.16180       -0.39017        0.03744
H          1.21652        0.95595        0.69794
H          2.04274       -0.25616       -0.00980
