10
ETHYLACETYLENE.gamout	Energy:    -155.7461385
C          2.20661        0.79516        0.88799
C          1.00692        0.96769        0.88751
C          3.65901        0.61268        0.88880
C          4.44165        1.93626        0.89300
H         -0.05642        1.11576        0.88690
H          3.94398        0.00856        1.76887
H          3.94560        0.01325        0.00606
H          5.52534        1.74120        0.89337
H          4.20012        2.54033        0.00475
H          4.19856        2.53542        1.78413
