26
ETHYL_SUCCINATE.gamout	Energy:    -613.4155964
C          5.52195        2.34924        1.92370
C          4.25675        1.75040        1.34861
O          3.16300        2.28284        1.91795
O          4.21477        0.91465        0.47701
C          6.75810        1.52410        1.59497
C          1.89192        1.81946        1.43441
C          8.04695        2.27673        1.84005
C          0.80994        2.53518        2.21440
O          9.09830        1.44087        1.85825
O          8.14356        3.47302        1.98010
C         10.39384        2.03449        2.03653
C         11.41527        0.91804        2.05877
H          5.38967        2.49170        3.00738
H          5.63528        3.36584        1.50971
H          6.78915        0.57549        2.15297
H          6.73359        1.23141        0.53127
H          1.82306        2.02097        0.35264
H          1.84069        0.72550        1.56078
H         -0.18282        2.20632        1.86966
H          0.87985        3.62536        2.07544
H          0.88935        2.32128        3.29172
H         10.57839        2.74555        1.21407
H         10.39396        2.61900        2.97094
H         11.39676        0.34853        1.11655
H         11.22091        0.21796        2.88647
H         12.42605        1.33452        2.19087
