20
ETHYL_PHENYL_KETONE.gamout	Energy:    -423.6395989
C          0.23497       -0.07325        0.00120
C          1.08469       -1.19298        0.00157
C          2.46866       -1.03573        0.00064
C          3.02692        0.24754       -0.00079
C          2.19301        1.36861       -0.00093
C          0.80553        1.21069        0.00003
C         -1.24968       -0.32076       -0.00014
O         -1.68214       -1.45785       -0.00221
C         -2.19963        0.87070        0.00125
C         -3.66923        0.46376        0.00002
H          0.62600       -2.18333        0.00264
H          3.11788       -1.91457        0.00100
H          4.11250        0.37363       -0.00175
H          2.62491        2.37205       -0.00175
H          0.17243        2.09947       -0.00002
H         -1.96246        1.49795        0.87999
H         -1.96188        1.50089       -0.87522
H         -4.31893        1.35187        0.00131
H         -3.91055       -0.14320       -0.88569
H         -3.91113       -0.14621        0.88350
