18
ETHYLCYCLOBUTANE.gamout	Energy:    -235.4986867
C          3.95326        0.98401        1.14299
C          5.23157        1.82342        1.20486
C          2.73133        1.68047        1.72573
C          1.34142        0.99569        1.61111
C          2.13020        2.91308        0.99136
C          0.71576        2.38751        1.34371
H          4.10816        0.03085        1.68100
H          3.74119        0.71083        0.09213
H          5.11898        2.77100        0.65144
H          5.49468        2.07990        2.24551
H          6.09026        1.28655        0.76969
H          2.92688        1.94262        2.78203
H          1.29023        0.34915        0.71864
H          0.97755        0.42096        2.47796
H          2.41194        3.91715        1.34616
H          2.32368        2.86080       -0.09383
H         -0.06444        2.45843        0.56978
H          0.32935        2.84582        2.26836
