13
ETHYL_VINYL_ETHER.gamout	Energy:    -232.1149460
C          3.78037        1.80087        1.27717
O          3.00632        0.93419        0.45603
C          1.72723        0.66433        0.79277
C          4.37702        1.09386        2.48769
C          1.00842        1.10805        1.83480
H          3.17260        2.67313        1.57992
H          4.58493        2.16922        0.62155
H          1.28643       -0.01155        0.05264
H          5.00279        1.79564        3.06288
H          3.59851        0.70150        3.15918
H          5.01073        0.25062        2.17016
H          1.39936        1.77334        2.60653
H         -0.03162        0.79069        1.92450
