12
ETHYL_SULFATE-1.gamout	Energy:    -777.6559741
C         -3.75338       -2.57248        2.68069
C         -2.64212       -2.78929        1.66245
H         -4.44161       -1.77458        2.35046
H         -4.33548       -3.49857        2.82292
H         -3.32989       -2.29113        3.65915
O         -1.81326       -3.82725        2.11880
H         -2.05558       -1.85772        1.53460
H         -3.07125       -3.03684        0.66965
S         -0.33926       -4.00125        1.22934
O          0.24780       -5.16665        1.91035
O         -0.79628       -4.22767       -0.16354
O          0.35891       -2.71056        1.44992
