22
ETHYL_BUTYL_KETONE.gamout	Energy:    -349.9217323
C          4.00878        1.44789        0.94800
C          2.78513        1.78196        1.79535
C          1.85494        0.62476        2.14086
O          2.54787        2.91369        2.15951
C          5.01584        2.59244        0.81534
C          0.59642        1.05372        2.88631
C          5.82422        2.89442        2.08489
C          6.84710        1.81992        2.45912
H          4.47434        0.52550        1.33904
H          3.62054        1.16080       -0.04747
H          1.60981        0.09112        1.20381
H          2.44186       -0.10307        2.73257
H          4.46222        3.49860        0.52349
H          5.70769        2.36224       -0.01366
H          0.85191        1.55754        3.83070
H         -0.04124        0.18689        3.11561
H          0.00861        1.76886        2.29059
H          6.34872        3.85404        1.93849
H          5.12675        3.06211        2.92309
H          6.37313        0.84620        2.66917
H          7.57838        1.66211        1.64782
H          7.40950        2.10487        3.36236
