12
ETHYLENEDIAMINE.gamout	Energy:    -190.2514738
N          0.76492        1.67953        1.43333
C          1.99896        0.90053        1.40683
C          3.19344        1.78567        1.04900
N          4.42757        1.00669        1.02273
H         -0.01066        1.10866        1.76950
H          0.51071        1.96228        0.48506
H          1.99854        0.03358        0.71230
H          2.16245        0.48239        2.41755
H          3.19377        2.65259        1.74357
H          3.03007        2.20386        0.03828
H          4.68137        0.72395        1.97111
H          5.20345        1.57733        0.68674
