23
ETHYL_ISOVALERATE.gamout	Energy:    -425.0738039
C          5.18098        2.49410        1.82027
C          3.97199        1.66935        1.42436
C          6.47271        2.11638        1.08599
O          2.98959        1.77511        2.33796
O          3.86811        1.01524        0.41426
C          6.96821        0.72395        1.48843
C          7.55244        3.17696        1.32082
C          1.76660        1.07729        2.05491
C          0.81057        1.33399        3.19980
H          4.91865        3.54682        1.60930
H          5.30082        2.43445        2.91524
H          6.23339        2.09110        0.00874
H          7.88072        0.45671        0.93256
H          7.21040        0.68274        2.56516
H          6.21353       -0.04755        1.27525
H          7.81238        3.25522        2.39108
H          8.47562        2.92843        0.77401
H          7.22273        4.17360        0.98501
H          1.36374        1.43244        1.09184
H          1.98821        0.00442        1.93167
H         -0.14225        0.81161        3.02143
H          1.22741        0.97240        4.15298
H          0.60035        2.40980        3.30457
