19
ETHYL_ACETOACETATE.gamout	Energy:    -459.7474818
C          5.01854        0.70728        2.01723
C          4.25615        2.02183        2.08063
C          6.31362        0.81540        1.19473
O          2.99191        1.87249        1.66869
O          4.72070        3.07331        2.45487
C          7.45342        1.57703        1.82700
O          6.38587        0.29975        0.10443
C          2.16248        3.04952        1.68424
C          0.78858        2.65338        1.19007
H          4.38863       -0.07161        1.57301
H          5.26949        0.43360        3.05609
H          7.81426        1.03128        2.71602
H          8.27347        1.68539        1.10624
H          7.09701        2.55842        2.17679
H          2.62828        3.81819        1.04647
H          2.13677        3.45456        2.70899
H          0.83754        2.25142        0.16627
H          0.33979        1.88598        1.83962
H          0.12468        3.53160        1.18467
