23
ETHYL_P-AMINOBENZOATE.gamout	Energy:    -554.0814280
O         -2.69826       -0.56172        1.35332
O         -1.73694       -2.21851        2.53271
N          3.35556        0.50755       -0.27209
C         -0.35454       -0.77875        1.21858
C         -0.27419        0.31708        0.34333
C          0.83359       -1.43386        1.58277
C          2.14689        0.08812        0.21357
C          0.95010        0.74488       -0.15149
C          2.06117       -1.01408        1.09435
C         -1.63091       -1.27638        1.77620
C         -3.97578       -0.97730        1.84614
C         -5.02518       -0.05510        1.26221
H         -1.18913        0.83447        0.05230
H          0.76626       -2.28513        2.26294
H          0.99541        1.59973       -0.83175
H          2.97530       -1.53619        1.38919
H         -4.14742       -2.02931        1.56313
H         -3.96684       -0.94442        2.94850
H         -6.02484       -0.34562        1.62159
H         -5.02753       -0.10307        0.16167
H         -4.84275        0.98991        1.55951
H          4.21086        0.03916       -0.01169
H          3.41909        1.29408       -0.90136
