26
ETHYL_HEXANOATE.gamout	Energy:    -464.3049383
C          0.40424       -0.19111        0.49076
C          1.91377       -0.10259        0.25716
C          2.74847       -0.57192        1.45361
C          4.26437       -0.48290        1.22249
C          5.04970       -0.96199        2.44847
C          6.58287       -1.01444        2.58851
C          8.51741        0.13256       -0.34469
C          7.17914       -0.12606        0.32248
O          7.45586       -0.63651        1.62724
O          7.04179       -1.41932        3.62519
H         -0.15945        0.15425       -0.39018
H          0.09313        0.42806        1.34924
H          0.09028       -1.22732        0.70230
H          2.18786        0.93991        0.01055
H          2.18494       -0.70202       -0.63154
H          2.47677       -1.61534        1.70207
H          2.47933        0.02666        2.34434
H          4.52008        0.56187        0.97843
H          4.51985       -1.08350        0.33352
H          4.74270       -1.99252        2.69770
H          4.74095       -0.37348        3.32987
H          8.36749        0.52885       -1.36162
H          9.10218       -0.79757       -0.41307
H          9.10517        0.86283        0.23265
H          6.59387       -0.85546       -0.26096
H          6.59428        0.80596        0.38690
