24
ETHYL_PHENYLACETATE.gamout	Energy:    -538.0289118
C          4.52528        1.52025        1.96829
C          4.71488        2.98838        1.57153
C          6.14173        3.47859        1.63256
O          3.25106        1.06082        2.02158
O          5.42447        0.76638        2.21965
C          6.52205        4.45772        2.55870
C          7.11153        2.97681        0.75246
C          2.10401        1.85448        1.71298
C          7.83835        4.92477        2.60999
C          8.42649        3.43803        0.80234
C          0.89214        0.94555        1.76648
C          8.79579        4.41327        1.73287
H          4.31334        3.10902        0.54877
H          4.07447        3.61371        2.21353
H          5.77913        4.86166        3.25213
H          6.83488        2.21720        0.01806
H          2.20711        2.30759        0.71146
H          2.00212        2.67719        2.44405
H          8.11459        5.68867        3.34014
H          9.16850        3.03433        0.10936
H          0.97944        0.13404        1.02799
H          0.79123        0.49286        2.76474
H         -0.02278        1.51923        1.54970
H          9.82668        4.77289        1.77268
