20
ETHYL_BUTANOATE.gamout	Energy:    -385.7922291
C          0.61683       -0.35882       -0.19815
C          2.08899       -0.01808        0.05608
C          3.01394       -1.00538       -0.66343
C          4.55395       -0.98768       -0.65293
O          5.30699       -0.08143        0.00993
O          5.13324       -1.83645       -1.28020
C          4.87799        1.00454        0.83148
C          6.13092        1.70813        1.31783
H         -0.05051        0.35036        0.31584
H          0.36971       -1.37204        0.16164
H          0.37754       -0.32507       -1.27433
H          2.27541       -0.02711        1.14223
H          2.27932        1.01259       -0.28550
H          2.77393       -1.00677       -1.74084
H          2.77242       -2.03231       -0.33762
H          4.28839        0.63147        1.68514
H          4.24527        1.69984        0.25652
H          6.76542        1.01616        1.89263
H          5.86694        2.56159        1.96216
H          6.71920        2.08083        0.46512
