18
ETHYL_ISOPROPYL_ETHER.gamout	Energy:    -272.5966018
C          0.98797        0.00533        0.32019
C          1.48296       -1.36266       -0.15703
C          1.92307        1.13186       -0.09771
O         -0.28923        0.31497       -0.21686
C         -1.39090       -0.27583        0.42970
C         -2.66224        0.19310       -0.25378
H          0.91848       -0.01015        1.42918
H          2.47111       -1.59658        0.27182
H          0.79507       -2.16997        0.13878
H          1.56996       -1.37312       -1.25595
H          1.97689        1.19002       -1.19709
H          1.55090        2.09785        0.27530
H          2.94031        0.97130        0.29311
H         -1.33229       -1.38351        0.39727
H         -1.40389        0.00686        1.50479
H         -2.66350       -0.10693       -1.31361
H         -3.54926       -0.24281        0.23281
H         -2.74273        1.29068       -0.21027
