22
ETHYLPARABEN.gamout	Energy:    -573.9273690
O          3.47247        4.97628       -0.06827
C          4.04165        3.75427       -0.02340
O          3.49570        2.75857       -0.44496
C          5.39158        3.77870        0.59788
C          2.16311        5.05342       -0.64594
C          5.98209        4.95856        1.07260
C          6.09738        2.56890        0.71270
C          1.71320        6.49799       -0.59399
C          7.24875        4.93181        1.64956
C          7.36051        2.53368        1.28702
C          7.94569        3.71890        1.76062
O          9.17855        3.63529        2.31278
H          1.48359        4.38973       -0.08574
H          2.20190        4.66808       -1.67829
H          5.43963        5.90041        0.98656
H          5.62688        1.65757        0.33959
H          0.70634        6.59450       -1.02944
H          2.39730        7.14797       -1.16227
H          1.67593        6.86258        0.44481
H          7.70450        5.85576        2.01845
H          7.91895        1.60108        1.38264
H          9.46731        4.51297        2.59691
