11
ETHYL_FORMATE.gamout	Energy:    -268.0284483
C         -1.91741        0.15464       -5.86424
O         -2.71773        0.58519       -5.08783
O         -1.02909       -0.79995       -5.54843
H         -1.83018        0.50143       -6.92491
C         -0.12281       -1.23467       -6.57145
C          0.77045       -2.30636       -5.98479
H          0.47401       -0.37604       -6.92883
H         -0.69638       -1.62685       -7.43081
H          1.34456       -1.91276       -5.13186
H          1.48051       -2.66599       -6.74579
H          0.17359       -3.16185       -5.63311
