24
ETHYLCYCLOHEXANE.gamout	Energy:    -314.0483558
C          0.40941        4.79847        1.92028
C          1.93296        4.70493        1.79614
C          2.53387        3.31392        2.06561
C          4.06973        3.37590        2.14229
C          2.10594        2.26758        1.02291
C          4.71188        2.00500        2.38597
C          2.74211        0.89387        1.26683
C          4.26855        0.98203        1.33673
H          0.06984        4.50796        2.92903
H          0.06350        5.82850        1.73837
H         -0.10828        4.14885        1.19609
H          2.24021        5.03277        0.78497
H          2.39291        5.42605        2.49554
H          2.16496        2.97181        3.05379
H          4.45527        3.79241        1.19161
H          4.37567        4.08197        2.93249
H          1.00876        2.16995        1.00848
H          2.39879        2.62982        0.01824
H          5.81035        2.09801        2.39046
H          4.42687        1.64223        3.39150
H          2.35708        0.47902        2.21745
H          2.43287        0.19080        0.47626
H          4.66120        1.28225        0.34718
H          4.70172       -0.00748        1.55747
