60
ETHYL_OLEATE.gamout	Energy:    -934.1786075
C         -0.76487        0.11276       -0.36702
O         -1.15998        1.25321       -0.34191
O         -1.32533       -0.87627        0.35696
C          0.41592       -0.38433       -1.17742
C         -2.45247       -0.52192        1.17198
C         -2.94022       -1.77756        1.86324
H         -3.23213       -0.07525        0.53281
H         -2.14490        0.25660        1.88957
H          1.27038       -0.47931       -0.48154
H          0.67153        0.42128       -1.88237
C          0.19577       -1.71956       -1.90426
H         -0.67389       -1.62531       -2.57972
H         -0.07628       -2.48843       -1.16241
C          1.41976       -2.17646       -2.70827
H          2.28685       -2.26977       -2.02733
H          1.69618       -1.38841       -3.43431
C          1.22013       -3.50288       -3.45820
H          0.35098       -3.40865       -4.13604
H          0.94901       -4.29228       -2.73193
C          2.44415       -3.95244       -4.27154
H          3.31947       -4.03559       -3.59999
H          2.70394       -3.16025       -4.99939
C          2.25828       -5.27810       -5.02428
H          1.37872       -5.19901       -5.69054
H          2.02018       -6.08392       -4.30592
C          3.48458       -5.68980       -5.86069
H          4.37131       -5.75035       -5.20883
H          3.69673       -4.87926       -6.58588
C          3.28952       -6.97696       -6.61648
C          4.08902       -8.05459       -6.63522
C          5.39847       -8.25346       -5.92004
H          5.29391       -9.09065       -5.20252
H          5.65253       -7.36577       -5.31780
C          6.56365       -8.57246       -6.87677
H          2.37870       -7.02064       -7.22813
H          3.77570       -8.89663       -7.26651
H          6.67006       -7.74398       -7.60072
H          6.30537       -9.46499       -7.47733
C          7.90662       -8.80523       -6.16959
H          7.79320       -9.61950       -5.42915
H          8.16681       -7.90266       -5.58465
C          9.06477       -9.14255       -7.12198
H          9.17801       -8.32510       -7.85880
H          8.79709      -10.04046       -7.71078
C         10.41261       -9.38047       -6.42428
H         10.29824      -10.18714       -5.67568
H         10.68945       -8.47638       -5.84930
C         11.56033       -9.73968       -7.37959
H         11.68113       -8.93027       -8.12442
H         11.28257      -10.64057       -7.95934
C         12.90378       -9.98652       -6.68271
H         12.78102      -10.78847       -5.93140
H         13.19071       -9.08364       -6.11243
C         14.03523      -10.35943       -7.64392
H         14.21239       -9.56218       -8.38583
H         13.80194      -11.28251       -8.20168
H         14.98054      -10.52808       -7.10440
H         -2.16258       -2.20187        2.51772
H         -3.22418       -2.54390        1.12463
H         -3.82309       -1.54941        2.48106
