10
ETHYLENE_CYANOHYDRIN.gamout	Energy:    -246.9509816
N         -2.08312        0.69525        0.34451
C         -1.69065       -0.27705       -0.14866
C         -1.21693       -1.51526       -0.76545
C         -1.99794       -2.75045       -0.30590
H         -0.14951       -1.65762       -0.52822
H         -1.29258       -1.42911       -1.86215
O         -1.42559       -3.85151       -0.97097
H         -3.06995       -2.61925       -0.55456
H         -1.92615       -2.84017        0.79640
H         -1.89306       -4.65329       -0.70589
