50
ETHYL_MYRISTATE.gamout	Energy:    -778.3787380
C          5.53321        0.89394       -0.89878
C          4.31337       -0.02361       -1.04853
C          4.69668       -1.49705       -1.26210
C          5.18145        2.37829       -0.73244
C          3.51508       -2.43569       -1.37832
C          6.40404        3.29078       -0.56188
O          2.73273       -2.37269       -0.27888
O          3.29291       -3.16352       -2.31562
C          6.06318        4.78080       -0.41972
C          1.56439       -3.20978       -0.24287
C          7.28935        5.68692       -0.24066
C          0.34460       -2.48176       -0.78389
C          6.95604        7.17974       -0.10935
C          8.18568        8.08015        0.07443
C          7.85950        9.57486        0.20280
C          9.09127       10.47033        0.39040
C          8.76864       11.96400        0.51681
C         10.00681       12.84334        0.70632
H          6.13286        0.55921       -0.03149
H          6.18914        0.77240       -1.78123
H          3.70124        0.31839       -1.90276
H          3.67092        0.05556       -0.15588
H          5.31523       -1.84260       -0.41457
H          5.29002       -1.62183       -2.17972
H          4.59816        2.71467       -1.61016
H          4.50965        2.49887        0.13808
H          6.98112        2.96328        0.32338
H          7.08002        3.15352       -1.42699
H          5.49508        5.11143       -1.30966
H          5.37951        4.91757        0.43940
H          1.76654       -4.12207       -0.82213
H          1.43510       -3.47053        0.81813
H          7.85427        5.36128        0.65320
H          7.97493        5.54110       -1.09681
H         -0.55435       -3.10663       -0.65579
H          0.45962       -2.26747       -1.85758
H          0.18285       -1.53329       -0.24781
H          6.39554        7.50882       -1.00475
H          6.26729        7.32449        0.74445
H          8.74424        7.75266        0.97167
H          8.87513        7.93022       -0.77791
H          7.30370        9.90549       -0.69501
H          7.16859        9.72411        1.05411
H          9.64625       10.14251        1.28998
H          9.78392       10.31995       -0.45951
H          8.21664       12.29479       -0.38242
H          8.07630       12.11590        1.36556
H          9.73660       13.90805        0.78733
H         10.55754       12.56839        1.62203
H         10.70560       12.73982       -0.14126
