14
ETHYL_CHLOROACETATE.gamout	Energy:    -766.6975627
Cl         0.95606       -0.00093       -1.57570
O         -1.14264        1.06080        0.44035
O          0.55652        2.21008        1.36666
C         -2.07655        2.06117        0.88680
C         -3.45865        1.64153        0.43739
C          0.14293        1.26824        0.73681
C          1.03357        0.15369        0.21760
H         -1.77837        3.03460        0.46409
H         -2.00319        2.15153        1.98328
H         -3.73861        0.66785        0.86926
H         -4.20012        2.38827        0.76186
H         -3.50818        1.55892       -0.65949
H          0.71950       -0.80958        0.64394
H          2.06770        0.37714        0.50100
