11
ETHYL_CHLOROFORMATE.gamout	Energy:    -727.4426041
O          3.14891        1.75235        1.98215
C          2.11674        2.49943        1.30232
C          0.73388        1.95195        1.60537
C          3.71753        0.64352        1.54461
Cl         3.19161        0.12026       -0.11193
O          4.51947        0.01455        2.14737
H          2.23588        3.51908        1.69489
H          2.32697        2.50902        0.22378
H          0.55189        1.92050        2.69048
H         -0.02685        2.60320        1.14650
H          0.60889        0.93953        1.19348
