19
ETHYL_N-PROPYL_KETONE.gamout	Energy:    -310.6669077
C         -0.80266       -0.58583       -0.00002
C         -1.98382        0.38422        0.00002
C         -3.34203       -0.31828        0.00001
C          0.56453        0.09042       -0.00001
O          0.67902        1.29700       -0.00003
C          1.78227       -0.82734        0.00000
C          3.11450       -0.08534        0.00003
H         -0.84621       -1.26118        0.87608
H         -0.84622       -1.26110       -0.87619
H         -1.89689        1.04836        0.87608
H         -1.89687        1.04841       -0.87600
H         -4.16590        0.41287        0.00002
H         -3.46846       -0.95960       -0.88913
H         -3.46848       -0.95962        0.88915
H          1.69568       -1.49776        0.87556
H          1.69569       -1.49775       -0.87556
H          3.95587       -0.79487        0.00002
H          3.20650        0.56241       -0.88491
H          3.20651        0.56239        0.88498
