18
ETHYL_CARBONATE.gamout	Energy:    -421.6950200
O          5.20206        2.78036        1.02314
C          3.88646        3.00793        1.05342
O          3.17159        1.86767        0.99262
O          3.41799        4.11104        1.12739
C          5.72495        1.44556        0.93601
C          1.74266        2.02127        1.02098
C          7.23538        1.54967        0.92817
C          1.12481        0.64290        0.93909
H          5.36516        0.85359        1.79359
H          5.34513        0.96366        0.02039
H          1.43577        2.66222        0.17871
H          1.45985        2.54705        1.94716
H          7.58561        2.13966        0.06728
H          7.59919        2.03471        1.84701
H          7.68068        0.54463        0.86531
H          0.02689        0.72399        0.96038
H          1.41251        0.13174        0.00698
H          1.43843        0.01485        1.78765
