20
ETHYL_NICOTINATE.gamout	Energy:    -514.8101080
O          2.13995        0.03370       -1.46241
O          1.54450       -2.13571       -1.41588
N         -1.50617        1.31238       -0.07707
C         -0.04040       -0.48445       -0.73097
C          3.44063       -0.33397       -1.94833
C          1.27736       -0.96955       -1.23386
C         -1.03853       -1.42415       -0.44743
C          4.24735        0.93327       -2.13293
C         -0.32994        0.87387       -0.52676
C         -2.26756       -0.97253        0.02215
C         -2.44897        0.40478        0.18942
H          3.90893       -1.02203       -1.22544
H          3.32473       -0.89342       -2.89112
H         -0.82720       -2.48429       -0.60168
H          3.76804        1.60709       -2.86041
H          4.35577        1.47556       -1.18056
H          5.25379        0.68554       -2.50471
H          0.43305        1.62725       -0.74102
H         -3.07586       -1.66789        0.25663
H         -3.40668        0.79032        0.55770
