15
ETHYL_ACRYLATE.gamout	Energy:    -345.3332511
O          3.79067        2.17728        1.03924
C          2.95077        1.13077        0.93190
C          1.51829        1.52025        0.99534
O          3.32373       -0.01276        0.79525
C          5.19338        1.87682        0.98939
C          1.07368        2.77655        1.10807
C          5.95642        3.16665        1.20026
H          0.83530        0.66838        0.93647
H          5.42571        1.12476        1.76104
H          5.42403        1.41563        0.01443
H          1.76923        3.61761        1.16471
H          0.00319        2.99455        1.14519
H          5.72916        3.60746        2.18374
H          7.03950        2.97266        1.15283
H          5.70557        3.90669        0.42413
