18
ETHYL_PROPYL_ETHER.gamout	Energy:    -272.5941211
O          3.10240        1.73876        1.06112
C          4.42992        1.28196        1.10919
C          5.36058        2.47576        1.26220
C          2.14244        0.72001        0.92572
C          6.83468        2.07860        1.32620
C          0.76322        1.35117        0.88353
H          4.68181        0.71506        0.18561
H          4.56961        0.57752        1.95899
H          5.06734        3.02383        2.17408
H          5.18154        3.16359        0.41776
H          2.21526        0.00433        1.77368
H          2.32953        0.13152        0.00123
H          7.47923        2.96435        1.43639
H          7.15178        1.54920        0.41188
H          7.03742        1.41267        2.18214
H         -0.01509        0.57876        0.78076
H          0.68274        2.04499        0.03215
H          0.57341        1.91922        1.80771
