42
ETODOLAC.gamout	Energy:    -939.6647053
O         -2.46620        0.98795       -0.68774
O         -4.58368       -1.48343        0.48866
O         -4.34759        0.30750        1.81257
N          0.65390       -0.89752       -0.00363
C         -1.79967       -0.22330       -0.35668
C         -0.32566        0.06000       -0.19457
C          0.23154        1.31547       -0.14590
C         -0.61396        2.54631       -0.28663
C         -2.10353       -1.19661       -1.51204
C         -2.35751       -0.78765        1.00060
C          1.64321        1.13624        0.08695
C         -2.06804        2.16497        0.00594
C          1.87464       -0.26805        0.17638
C          3.14555       -0.81907        0.42847
C         -1.72029       -0.68342       -2.89897
C          2.72820        2.01756        0.24400
C         -3.84524       -0.57340        1.16057
C          3.38415       -2.30995        0.50124
C          4.18958        0.09601        0.58244
C          3.98914        1.48692        0.48764
C          3.77418       -2.94139       -0.84509
H         -0.29721        3.33728        0.41621
H         -0.52834        2.97840       -1.30171
H         -3.18180       -1.40869       -1.47955
H         -1.59992       -2.15757       -1.30349
H         -2.12547       -1.86061        1.07401
H         -1.87477       -0.27242        1.83949
H         -2.22433        2.04178        1.09357
H         -2.76044        2.94693       -0.33506
H          0.50441       -1.89599       -0.01025
H         -2.24414        0.25788       -3.11770
H         -0.63788       -0.49706       -2.98920
H         -2.00123       -1.41918       -3.66807
H          2.58151        3.09835        0.17762
H          4.18174       -2.50653        1.23657
H          2.48567       -2.81532        0.89935
H          5.19561       -0.28233        0.78834
H          4.84258        2.15674        0.61580
H          2.99520       -2.77826       -1.60756
H          3.93068       -4.02696       -0.74160
H          4.70685       -2.49847       -1.22866
H         -5.51511       -1.23492        0.62326
