25
FAP-1.gamout	Energy:   -2364.8176108
P          1.37170       -0.23181       -1.06733
C          3.07676        0.59933       -1.73196
C          2.99868        1.77376       -2.74153
C          0.74490        1.37439       -0.04075
C         -0.32523        1.22091        1.07657
C          2.31322       -1.11222        0.44045
C          1.69760       -2.40947        1.04166
F         -0.04467       -0.97569       -0.59680
F          0.61085        0.38765       -2.39805
F          1.75514       -1.58778       -1.93768
F          3.54757       -1.50331        0.01642
F          2.50864       -0.29368        1.51257
F          2.57084       -2.91698        1.94119
F          1.49017       -3.35161        0.12328
F          0.55876       -2.18784        1.69519
F          3.82983       -0.32056       -2.39112
F          3.83823        1.06542       -0.70262
F          2.50907        1.39201       -3.92089
F          4.24733        2.23594       -2.97010
F          2.28204        2.79972       -2.28259
F          0.13793        2.25473       -0.88574
F          1.77451        2.04631        0.54002
F          0.02316        0.38107        2.05057
F         -1.50705        0.84306        0.58840
F         -0.50920        2.43077        1.65110
