46
FENOFIBRATE.gamout	Energy:   -1534.2768788
C          0.17774        4.93853       -4.45680
C          0.67738        3.64924       -4.65218
C         -0.99360        5.14770       -3.72100
Cl         1.01807        6.30475       -5.14850
C          0.00935        2.56179       -4.08640
C         -1.66080        4.05253       -3.18009
C         -1.16215        2.74736       -3.33571
C         -1.98184        1.61797       -2.76751
O         -3.19320        1.75400       -2.68093
C         -1.33790        0.35044       -2.30116
C         -2.15326       -0.79299       -2.16985
C         -0.00199        0.25501       -1.88651
C         -1.64233       -1.98080       -1.67444
C          0.52283       -0.93368       -1.37003
C         -0.29711       -2.06924       -1.26376
O          0.06686       -3.27735       -0.77085
C          1.41939       -3.67634       -0.49080
C          1.26785       -5.07928        0.09721
C          2.27474       -3.71476       -1.75419
C          2.07238       -2.76996        0.58017
O          3.14003       -2.22335        0.43015
O          1.32954       -2.71316        1.68706
C          1.80790       -1.93660        2.82148
C          0.79372       -0.83831        3.08675
C          1.99030       -2.89441        3.98778
H          1.57883        3.50122       -5.24762
H         -1.37419        6.16071       -3.58509
H          0.39679        1.55695       -4.26094
H         -2.59071        4.19054       -2.62485
H         -3.20173       -0.71852       -2.46475
H          0.64974        1.12861       -1.93316
H         -2.26400       -2.87257       -1.57848
H          1.56415       -0.94998       -1.05421
H          2.25025       -5.48994        0.37421
H          0.62795       -5.04853        0.98791
H          0.80463       -5.73901       -0.65017
H          3.27404       -4.10246       -1.51364
H          2.40976       -2.72299       -2.20120
H          1.80147       -4.37736       -2.49274
H          2.77623       -1.50429        2.53017
H          1.11840       -0.22363        3.94169
H          0.69001       -0.18045        2.21178
H         -0.19567       -1.26301        3.32085
H          2.37246       -2.35136        4.86660
H          2.71319       -3.68421        3.73508
H          1.03515       -3.36946        4.26466
