53
FENTANYL.gamout	Energy:   -1038.5325511
O         -1.86098        3.24644        0.57663
N          1.68258        0.59041       -0.19796
N         -2.59348        1.14579        0.09660
C         -1.22858        0.59116       -0.07870
C         -0.46288        1.19419       -1.25886
C         -0.36301        0.64635        1.18302
C          0.89314        0.50598       -1.41783
C          0.98813       -0.02118        0.92433
C          3.03967        0.10540       -0.37644
C          4.03179        0.60246        0.69244
C         -3.66788        0.22114       -0.10590
C         -2.79448        2.47154        0.43500
C          5.44761        0.16631        0.39753
C         -4.23985        2.93370        0.63126
C         -4.08105       -0.61477        0.94002
C         -4.27006        0.09260       -1.36468
C         -4.31896        4.38895        1.08303
C          5.92027       -1.08288        0.82454
C          6.31061        0.97910       -0.35159
C         -5.08078       -1.56489        0.73135
C         -5.27148       -0.85702       -1.57268
C         -5.67708       -1.68665       -0.52554
C          7.21132       -1.51031        0.50939
C          7.60269        0.55689       -0.66881
C          8.05889       -0.69183       -0.24076
H         -1.39653       -0.47342       -0.30897
H         -0.31065        2.26879       -1.08273
H         -1.04731        1.07436       -2.18492
H         -0.87296        0.12604        2.00942
H         -0.20895        1.69388        1.47770
H          0.73703       -0.55851       -1.72447
H          1.45084        0.98829       -2.23636
H          1.60963        0.06579        1.82726
H          0.83627       -1.11653        0.75038
H          3.07993       -1.00919       -0.41973
H          3.39589        0.45804       -1.35750
H          3.73851        0.22898        1.68697
H          3.96876        1.70136        0.73411
H         -4.79120        2.78542       -0.31343
H         -4.73542        2.26681        1.35716
H         -3.59860       -0.51552        1.91413
H         -3.93690        0.73956       -2.17829
H         -3.83939        4.52666        2.06385
H         -3.79632        5.04866        0.37523
H         -5.36777        4.71337        1.16012
H          5.26682       -1.72947        1.41683
H          5.96690        1.96160       -0.68676
H         -5.39611       -2.21263        1.55267
H         -5.73367       -0.95343       -2.55800
H         -6.45813       -2.43188       -0.68942
H          7.55815       -2.48707        0.85513
H          8.25805        1.20896       -1.25107
H          9.07054       -1.02253       -0.48703
