31
FISETIN.gamout	Energy:   -1027.6434601
O         -0.49747       -0.57954       -0.06680
O          0.40874        2.90000        0.55763
O         -2.28709        3.03584        0.56843
O         -4.57500       -2.82550       -0.67347
O          3.99033       -2.12507       -1.50651
O          5.77574       -0.78808        0.13589
C          0.26761        0.52496        0.19230
C         -2.51951        0.71000        0.11958
C         -1.84766       -0.50320       -0.10454
C          1.70687        0.20618        0.18852
C         -0.29739        1.75982        0.37892
C         -1.76560        1.94667        0.37949
C         -3.92515        0.70940        0.06818
C         -2.53842       -1.68841       -0.37010
C          2.18607       -0.81941       -0.64893
C          2.62666        0.89343        1.00501
C         -3.93139       -1.66447       -0.41502
C         -4.62625       -0.45394       -0.19395
C          3.53903       -1.13980       -0.67575
C          3.98189        0.56124        0.98827
C          4.44594       -0.45695        0.15943
H         -4.43888        1.65764        0.24079
H         -1.99678       -2.61890       -0.53683
H          1.50649       -1.37109       -1.29783
H          2.27580        1.64784        1.71084
H         -5.71963       -0.44531       -0.23119
H          4.69400        1.07026        1.64018
H          1.33983        2.74165        0.34497
H         -5.52926       -2.67150       -0.67361
H          4.88957       -1.89573       -1.78785
H          5.85428       -1.75456        0.12901
