8
FLUOROETHANE.gamout	Energy:    -178.8289070
C          0.00005        9.99853        0.00009
C          1.30460        9.22997       -0.00011
F          2.37786       10.10499        0.00011
H         -0.85521        9.30294       -0.00005
H         -0.07618       10.63966        0.89260
H         -0.07627       10.64009       -0.89211
H          1.38822        8.58683       -0.89537
H          1.38824        8.58641        0.89485
