12
FLUOROBENZENE.gamout	Energy:    -331.0589951
C          6.33000        1.86744       -0.67271
C          6.84253        0.61604       -0.33847
C          4.94302        2.03396       -0.71925
C          4.09099        0.96237       -0.43510
C          4.62901       -0.28423       -0.10214
C          6.01366       -0.46612       -0.05137
F          8.17322        0.44725       -0.29162
H          7.01747        2.68710       -0.89008
H          4.52692        3.01056       -0.98012
H          3.00809        1.09877       -0.47315
H          3.96726       -1.12516        0.12085
H          6.45932       -1.42864        0.20574
