23
FLUORENE.gamout	Energy:    -500.7428169
C          3.29345        1.42526        2.77616
C          4.42868        1.46458        3.71076
C          2.30106        2.31538        3.23995
C          3.09038        0.69154        1.60231
C          4.13012        2.37806        4.74453
C          5.64662        0.77809        3.70472
C          2.75997        2.98287        4.51913
C          1.10988        2.47263        2.53536
C          1.89374        0.85418        0.89990
C          5.04596        2.60493        5.76994
C          6.56054        1.00964        4.73541
C          0.90989        1.73728        1.36137
C          6.26425        1.91564        5.76123
H          3.85374        0.00086        1.23731
H          5.88289        0.07008        2.90726
H          2.07457        2.77623        5.36147
H          2.80632        4.08273        4.41679
H          0.33848        3.16053        2.89069
H          1.72282        0.28727       -0.01855
H          4.82045        3.31101        6.57305
H          7.51555        0.47904        4.74176
H         -0.02099        1.85322        0.80088
H          6.99015        2.08505        6.56021
