31
FLURBIPROFEN.gamout	Energy:    -828.6662030
F         -0.27822       -1.11094        1.42244
O          4.44048        1.27596       -1.09601
O          4.64764        0.29637        0.90955
C          3.19817        2.23033        0.69300
C          1.77503        1.72615        0.49441
C         -0.91469        0.80640        0.16859
C          1.36541        0.50211        1.03753
C          0.83372        2.48524       -0.21024
C          0.05615        0.06856        0.86868
C         -0.47733        2.03428       -0.36186
C          3.48475        2.61523        2.14916
C         -2.31701        0.34182       -0.00034
C          4.17496        1.16622        0.21909
C         -2.62162       -1.00750       -0.25986
C         -3.38162        1.25703        0.07628
C         -3.94067       -1.42032       -0.44524
C         -4.70157        0.84287       -0.10658
C         -4.98769       -0.49865       -0.36745
H          3.33126        3.10447        0.03952
H          2.05517       -0.13626        1.59236
H          1.12982        3.43695       -0.65661
H         -1.18342        2.63921       -0.93568
H          2.75490        3.36102        2.49380
H          3.42547        1.73210        2.80070
H          4.49497        3.04050        2.24979
H         -1.81423       -1.73670       -0.32760
H         -3.17624        2.30537        0.30274
H         -4.15135       -2.47212       -0.65272
H         -5.51074        1.57302       -0.03122
H         -6.02077       -0.82499       -0.50768
H          5.02715        0.53425       -1.32509
