16
FORMANILIDE.gamout	Energy:    -400.4195842
C          6.31558        1.80321       -0.66899
C          6.81283        0.56332       -0.23359
C          4.94199        2.01171       -0.79191
C          4.04050        0.98527       -0.49767
C          4.53154       -0.24756       -0.06200
C          5.90363       -0.46062        0.08404
N          8.20481        0.39445       -0.11442
C          8.92225       -0.77491       -0.15002
O         10.12591       -0.83038       -0.03148
H          7.01626        2.60510       -0.91691
H          4.57463        2.98409       -1.12937
H          2.96537        1.14707       -0.59990
H          3.83812       -1.05480        0.18748
H          6.26124       -1.41792        0.46459
H          8.77920        1.23197       -0.05467
H          8.28577       -1.67485       -0.31372
