10
FUMARATE_DIANION-2.gamout	Energy:    -453.9473066
O          3.50536       -0.82202        0.04764
O         -3.50202        0.82577        0.04782
O          3.24944        1.49056        0.04385
O         -3.25469       -1.48763        0.04354
C          0.05764       -0.60153       -0.15502
C         -0.05504        0.60342       -0.15423
C          3.37210        0.33362        0.04544
C         -3.37298       -0.33030        0.04537
H          0.15326       -1.67213       -0.15370
H         -0.15490        1.67363       -0.15313
