11
FUMARATE_MONOANION-1.gamout	Energy:    -454.6157432
O          2.16397       -2.16319        0.07950
O         -2.43877        1.62369       -0.29598
O          2.26484        0.10054        0.26571
O         -2.76035       -0.56811       -0.48702
C          0.16489       -0.93994       -0.10463
C         -0.51128        0.22161       -0.13474
C          1.69939       -1.00315        0.10360
C         -1.97055        0.33180       -0.32237
H         -0.37045       -1.88920       -0.22841
H          0.09781        1.12724        0.00065
H         -1.68000        2.20740       -0.15731
