12
FUMARIC_ACID.gamout	Energy:    -455.1811362
C          2.90603        1.34979        0.52702
C          3.57218        2.44945        0.90132
C          1.45347        1.20291        0.81479
C          5.02466        2.59623        0.61347
O          0.98060        0.02808        0.35600
O          0.76545        2.01604        1.38439
O          5.49735        3.77164        1.07101
O          5.71290        1.78245        0.04509
H          3.41809        0.53930        0.00258
H          3.06012        3.25993        1.42576
H          0.03331       -0.00058        0.57673
H          6.44467        3.80012        0.85044
