9
FURAN.gamout	Energy:    -229.7230115
C          1.86566        2.62634        0.03076
C          1.08502        1.50574        0.05849
O          1.85935        0.39234        0.09359
C          3.15397        0.79761        0.08836
C          3.22470        2.16118        0.05035
H          1.52024        3.65781        0.00016
H          0.01014        1.34207        0.05791
H          3.90273        0.00962        0.11413
H          4.13055        2.76406        0.03771
