11
FURFURAL.gamout	Energy:    -342.9114056
C         -5.66368       -0.50733       -0.19428
O         -5.05314       -1.54908       -0.82313
C         -7.02709       -0.58534       -0.38352
C         -4.85186        0.46337        0.53099
C         -6.01397       -2.28508       -1.40776
C         -7.25529       -1.74686       -1.17633
O         -3.64597        0.43464        0.63342
H         -7.76822        0.11170        0.00378
H         -5.46786        1.27186        1.00484
H         -5.67878       -3.16321       -1.95582
H         -8.20767       -2.13579       -1.53006
