13
FURFURYL_ALCOHOL.gamout	Energy:    -344.1071410
O         -4.51452        1.58422        0.25383
C         -4.75439        0.34277        0.87452
C         -5.58424       -0.57005        0.02561
C         -6.49950       -0.33939       -0.96582
O         -5.44996       -1.90671        0.23205
C         -6.95911       -1.63117       -1.39239
C         -6.28994       -2.54180       -0.62675
H         -4.09088        1.41094       -0.59853
H         -3.82358       -0.19255        1.15342
H         -5.27787        0.57258        1.81975
H         -6.80923        0.63577       -1.33472
H         -7.69088       -1.85094       -2.16750
H         -6.29594       -3.62750       -0.57674
