12
G-BUTYROLACTONE.gamout	Energy:    -306.0946290
O         -0.05363        0.03439        1.40092
C          0.89352        0.75921        1.29944
C          0.90273        2.25252        0.98289
O          2.16772        0.32304        1.46247
C          2.37898        2.66719        0.98036
C          3.14142        1.35442        1.29749
H          0.29292        2.76778        1.74086
H          0.39422        2.40232        0.01811
H          2.59146        3.43765        1.73565
H          2.68935        3.07728        0.00840
H          3.82318        1.05472        0.48540
H          3.73013        1.42130        2.22647
