15
G-VALEROLACTONE.gamout	Energy:    -345.3599486
C         -0.81649       -0.95462       -0.15708
C         -1.42382       -2.07109        0.66626
O          0.61512       -0.95341        0.03102
C         -1.25364        0.47247        0.21143
C          1.12404        0.30649        0.02371
C         -0.02391        1.29447       -0.16727
O          2.29330        0.53397        0.14283
H         -1.00220       -1.13953       -1.23242
H         -1.21402       -1.92117        1.73727
H         -1.01011       -3.04496        0.36563
H         -2.51619       -2.10096        0.52320
H         -1.43579        0.53218        1.29782
H         -2.17798        0.77360       -0.30253
H          0.14593        2.20308        0.42580
H         -0.03574        1.59102       -1.23116
