10
GAI+1.gamout	Energy:    -205.5051963
C         -4.54401        1.04290        1.02614
N         -4.47393        1.20504        2.34993
H         -5.28511        1.47399        2.89527
H         -3.60683        1.06489        2.85590
N         -3.45571        0.68792        0.33822
N         -5.70243        1.23552        0.39021
H         -2.56460        0.53552        0.79675
H         -3.48300        0.55854       -0.66670
H         -5.78224        1.11895       -0.61352
H         -6.54244        1.50522        0.88930
