17
GALLATE-1.gamout	Energy:    -645.1198272
O          1.42032        2.54509       -0.00441
O          2.77953        0.23769        0.05912
O         -1.32615        2.56478       -0.06650
O         -0.75786       -3.46103        0.03266
O         -2.71658       -2.32113       -0.02829
C         -0.68724       -1.08638        0.00002
C          0.72124        1.36493       -0.00327
C          1.39657        0.13525        0.02947
C         -0.68137        1.35287       -0.03462
C          0.71164       -1.07691        0.03137
C         -1.36677        0.13446       -0.03272
C         -1.47192       -2.43462        0.00158
H          1.21696       -2.04839        0.05669
H         -2.46157        0.08971       -0.05670
H          2.35454        2.29112        0.02019
H          3.14086       -0.65652        0.08005
H         -2.27171        2.36910       -0.08495
