18
GALLIC_ACID.gamout	Energy:    -645.6871638
O          0.54628        2.24693        0.88764
C          1.24029        3.38889        0.66900
O          0.68274        4.44909        0.48937
C          2.70940        3.18906        0.67694
C          3.52444        4.30913        0.46068
C          3.28772        1.92893        0.89194
C          4.91424        4.18985        0.45570
C          4.67464        1.81170        0.88631
O          5.75866        5.23099        0.25311
C          5.50284        2.92823        0.67033
O          5.35490        0.63949        1.08297
O          6.84554        2.80326        0.66660
H         -0.39291        2.49523        0.86110
H          3.04801        5.27833        0.29620
H          2.65479        1.05636        1.06054
H          5.24221        6.03630        0.11864
H          4.73636       -0.08791        1.22508
H          7.04915        1.86863        0.82987
