29
GERANIOL.gamout	Energy:    -466.4255048
C         -3.08362        2.82161       -0.06795
C         -1.67785        2.27750       -0.05569
C         -0.53169        2.97668       -0.04471
C          0.80602        2.23327       -0.03332
C         -0.51998        4.48483       -0.04315
H         -0.00138        4.88645        0.84497
H         -1.53320        4.90938       -0.05160
H          0.01444        4.88844       -0.92089
C          2.08878        3.08011       -0.02269
H          0.84495        1.56351       -0.91131
H          0.82998        1.56344        0.84518
C          3.33695        2.22123       -0.01219
H          2.08660        3.74854        0.85741
H          2.10062        3.74814       -0.90300
C          4.61406        2.64205       -0.00228
C          5.01234        4.09469       -0.00020
H          4.15290        4.77844       -0.00774
H          5.64117        4.33002       -0.87865
H          5.62692        4.33146        0.88788
C          5.76208        1.66577        0.00737
H          6.41731        1.81012       -0.87153
H          5.41471        0.62204        0.00517
H          6.40367        1.81083        0.89620
H          3.16906        1.13693       -0.01274
H         -1.64338        1.18179       -0.05656
O         -3.97079        1.71888       -0.07764
H         -3.24170        3.47133       -0.95700
H         -3.25838        3.46887        0.81977
H         -4.87397        2.05688       -0.08666
