14
GLUTARIC_ANHYDRIDE.gamout	Energy:    -419.3030666
O         -0.03157        2.66385        1.57476
C          1.16106        2.61995        1.57704
O          1.77059        1.38565        1.41541
C          2.07387        3.81269        1.76317
C          3.13313        1.13482        1.37830
C          3.42468        3.63386        1.07886
O          3.49387        0.00682        1.23059
C          4.05266        2.32546        1.54907
H          2.21230        3.94353        2.85250
H          1.52318        4.69364        1.40759
H          4.08637        4.48056        1.31009
H          3.29415        3.61917       -0.01668
H          4.98739        2.08364        1.02592
H          4.29889        2.38610        2.62548
