13
GLUTARONITRILE.gamout	Energy:    -303.2057543
C         -5.35701        0.87143       -0.00073
C         -4.14660        1.69643        0.01967
C         -2.85444        0.86148       -0.00704
H         -4.17809        2.33173        0.92213
H         -4.18361        2.38107       -0.84582
C         -1.60761        1.76267        0.02509
H         -2.83592        0.23500       -0.91267
H         -2.83798        0.17585        0.85476
C         -0.35690        1.00047        0.00303
H         -1.60997        2.39428        0.93068
H         -1.60577        2.45250       -0.83706
N         -6.30764        0.20984       -0.02470
N          0.62277        0.38251       -0.01444
