17
GLUTARIC_ACID.gamout	Energy:    -495.6576991
C          2.54898        4.15308        0.06815
C          3.35310        3.24192        1.00916
C          4.84170        3.62223        1.05451
C          1.07804        3.80171        0.00424
C          5.65758        2.74551        1.98043
O          0.48997        3.88890        1.21775
O          0.47249        3.47817       -0.98621
O          5.60787        1.44555        1.61454
O          6.28478        3.12378        2.93758
H          2.62596        5.19934        0.41313
H          2.93469        4.10631       -0.96050
H          2.92509        3.30239        2.02255
H          3.25859        2.19388        0.68240
H          5.27652        3.53694        0.04315
H          4.97806        4.65868        1.39567
H         -0.44330        3.64340        1.09296
H          6.14648        0.95442        2.25917
