19
GLUTAMIC_ACID.gamout	Energy:    -550.9323265
C          2.68090        1.79854       -0.19656
C          3.87128        0.99676        0.34052
C          5.18220        1.66460       -0.06834
N          3.83609       -0.39242       -0.10870
C          1.33777        1.24097        0.26383
O          5.31490        2.82464       -0.36281
O          6.22894        0.81208       -0.00358
C          0.15759        2.07759       -0.17992
O          0.21200        3.13307       -0.75914
O         -1.01347        1.49745        0.16221
H          2.72237        1.79567       -1.29699
H          2.78017        2.84665        0.11856
H          3.15413       -0.92282        0.43144
H          4.74043       -0.83474        0.04855
H          1.28265        1.16689        1.36591
H          1.17260        0.21804       -0.11452
H          7.01905        1.32273       -0.25121
H         -1.71698        2.09393       -0.14662
H          3.87572        1.09116        1.45390
