18
GLUTAMATE-1.gamout	Energy:    -550.3985854
O          2.54775        1.24316        0.62508
O          2.70615       -0.09992       -1.19377
O         -1.59514       -1.74430       -0.89464
O         -3.17639       -0.19882       -0.68795
N          0.97260       -1.85171       -0.39898
C          1.24296       -0.77537        0.57978
C         -0.02446       -0.04669        1.04170
C         -0.93658        0.45433       -0.09794
C          2.27907        0.24489       -0.06199
C         -2.00901       -0.52394       -0.58408
H          1.74089       -1.18198        1.47872
H          0.33834        0.82299        1.60910
H         -0.61072       -0.67350        1.73965
H         -1.47797        1.35870        0.21124
H         -0.30858        0.73820       -0.96273
H          1.63429       -1.59045       -1.16230
H         -0.57038       -1.83170       -0.76031
H          1.26348       -2.76060       -0.03880
