8
GLY-1.gamout	Energy:    -303.3612779
O         -1.90638        0.72325       -0.51640
O          1.41848       -0.26502        0.32278
O         -0.58245       -0.26064        1.39642
C         -0.54363        0.56250       -0.81463
C          0.19979       -0.05498        0.42401
H         -0.37801       -0.10622       -1.68935
H         -0.05019        1.52705       -1.07064
H         -1.88031        0.36876        0.41523
