26
GLYCEROL_1-TERT-BUTYL_ETHER.gamout	Energy:    -501.3549431
C          0.72072       -0.06289        0.09015
C          0.05637        1.10707       -0.61503
C          0.05581       -1.39609       -0.25712
O          2.08318       -0.09656       -0.30218
O          0.49655        2.29488       -0.00464
O         -1.27201       -1.39278        0.22375
C          1.20038        3.61002       -1.93541
C          0.30797        3.53932       -0.68722
C         -1.16562        3.76539       -1.05257
C          0.76063        4.58032        0.33585
H          0.61657        0.10793        1.17919
H         -1.04014        0.98689       -0.54294
H          0.34028        1.05628       -1.68420
H          0.65869       -2.20707        0.20249
H          0.10736       -1.54184       -1.35591
H         -1.70556       -2.20947       -0.05220
H          0.88725        2.89053       -2.70766
H          2.24262        3.38401       -1.66363
H          1.16248        4.61418       -2.38658
H         -1.51732        3.04815       -1.81015
H         -1.30960        4.77708       -1.46417
H         -1.80165        3.66447       -0.15914
H          1.80258        4.38392        0.62945
H          0.13649        4.51949        1.24021
H          0.69320        5.59992       -0.07396
H          2.59084       -0.53899        0.38818
