14
GLYCEROL.gamout	Energy:    -344.3333297
O          2.07095       -0.59801        0.38772
C          1.30447        0.28165        1.17703
C         -0.05524        0.47113        0.52976
O         -0.83031       -0.68862        0.73322
C         -0.78606        1.68192        1.10397
O         -2.08206        1.68556        0.52798
H          2.86607       -0.83524        0.87965
H          1.13489       -0.11383        2.19869
H          1.79424        1.27463        1.27600
H          0.11477        0.64838       -0.55364
H         -1.73490       -0.43584        0.49310
H         -0.83621        1.58389        2.20705
H         -0.23090        2.61079        0.86604
H         -2.64738        2.28921        1.02389
