26
GLYCEROL_2-TERT-BUTYL_ETHER.gamout	Energy:    -501.3544443
C          1.30790        0.25895        0.78850
C          0.04373        0.12561        1.63942
C          1.52380        1.69953        0.34719
O          2.40115       -0.17834        1.57252
O         -1.07868        0.48754        0.85883
O          2.47893        1.73967       -0.69507
C          4.24672       -1.40939        2.26319
C          3.18031       -1.31664        1.17056
C          2.33433       -2.59620        1.15940
C          3.84409       -1.09124       -0.19277
H          1.17832       -0.35030       -0.12315
H         -0.01820       -0.92041        1.99380
H          0.15399        0.76875        2.53691
H          0.54708        2.10345        0.02131
H          1.85931        2.27438        1.23483
H         -1.86771        0.45004        1.41310
H          2.61590        2.66132       -0.94432
H          3.76720       -1.52053        3.24753
H          4.84742       -0.48788        2.28089
H          4.91758       -2.26638        2.09626
H          1.87255       -2.76406        2.14475
H          2.96277       -3.47037        0.92468
H          1.53469       -2.55670        0.40314
H          4.36435       -0.12411       -0.20229
H          3.11102       -1.07483       -1.01264
H          4.56469       -1.89723       -0.40302
