10
GLYCINE.gamout	Energy:    -284.0726845
N         -1.40933        1.46787        0.01332
C         -0.45939        2.55389        0.26922
C          0.99140        2.09883        0.01237
O          1.08534        0.79694       -0.25759
O          1.92917        2.84937        0.06683
H         -2.06483        1.32976        0.78011
H         -1.95809        1.62522       -0.83055
H         -0.50659        2.88879        1.31801
H         -0.63526        3.45219       -0.34556
H          0.14916        0.47583       -0.23651
