9
GLYCINATE-1.gamout	Energy:    -283.4984336
O          1.42813       -0.06209        0.83456
O          0.52358        0.02950       -1.24280
N         -2.01191       -0.45130       -0.36922
C         -0.95637       -0.17698        0.62082
C          0.49239       -0.07011        0.01045
H         -1.16534        0.78538        1.13297
H         -0.95121       -0.93892        1.42130
H         -1.94696       -1.45306       -0.57701
H         -1.58750       -0.05222       -1.22117
