17
GUAIACOL.gamout	Energy:    -421.4373926
O          0.26781        0.84883       -0.44824
O         -0.50297       -1.65289       -0.47947
C         -1.05364        0.63683       -0.23102
C         -1.46234       -0.72007       -0.25027
C         -2.00692        1.63222        0.00138
C         -2.80332       -1.03817       -0.03880
C         -3.35310        1.29769        0.21284
C         -3.75289       -0.03435        0.19297
C          0.75701        2.16637       -0.44866
H         -1.70677        2.68020        0.01897
H         -3.10526       -2.09069       -0.05654
H         -4.08212        2.09075        0.39243
H         -4.79841       -0.30391        0.35612
H          0.29061        2.78227       -1.24057
H          1.83661        2.09990       -0.64219
H          0.60004        2.66897        0.52439
H         -0.91191       -2.52747       -0.46692
