49
HALOPERIDOL.gamout	Energy:   -1577.6463944
Cl         9.17053       -0.93251       -0.42073
F         -9.32145        0.27722       -0.41668
O          3.28377        2.12550       -0.22114
O         -3.09463       -0.06369       -1.24505
N          0.58261       -0.01124        0.89279
C          3.34632        0.75467        0.16885
C          2.42865       -0.08967       -0.74382
C          2.85009        0.60246        1.62364
C          0.94735        0.19949       -0.50107
C          1.34907        0.86304        1.76244
C         -0.85494        0.02688        1.12331
C          4.80848        0.32996        0.02963
C         -1.55320       -1.28210        0.73515
C          5.21951       -0.97733        0.33366
C          5.77880        1.23836       -0.41417
C         -3.07703       -1.21724        0.84592
C          6.55138       -1.37125        0.19923
C          7.11574        0.85852       -0.55386
C         -3.75082       -0.48436       -0.30983
C          7.49755       -0.44708       -0.24752
C         -5.24008       -0.30432       -0.28736
C         -6.06281       -0.78110        0.74680
C         -5.83427        0.37226       -1.36691
C         -7.44289       -0.58694        0.70862
C         -7.20920        0.57308       -1.41810
C         -7.99881        0.08897       -0.37521
H          2.61346       -1.15999       -0.56338
H          2.68695        0.12491       -1.79133
H          3.41488        1.29714        2.26343
H          3.05076       -0.42174        1.97355
H          0.33831       -0.45162       -1.14243
H          0.70650        1.24484       -0.81851
H          1.05306        0.68713        2.80796
H          1.12907        1.94406        1.56165
H         -1.02265        0.20430        2.19917
H         -1.33034        0.87848        0.58805
H         -1.17462       -2.08542        1.38527
H         -1.28591       -1.55388       -0.29726
H          2.38640        2.44711       -0.06825
H          4.49399       -1.71469        0.68629
H          5.47379        2.25705       -0.64968
H         -3.38623       -0.74747        1.79748
H         -3.50020       -2.23654        0.87827
H          6.85730       -2.39054        0.43783
H          7.86395        1.57361       -0.89906
H         -5.63441       -1.31420        1.59675
H         -5.18298        0.73437       -2.16422
H         -8.09404       -0.95186        1.50412
H         -7.68263        1.09638       -2.24995
