12
HEA+1.gamout	Energy:    -210.4613192
N        -19.17353      -12.49435       -2.35198
C        -20.09675      -12.34389       -1.16421
C        -21.38462      -13.14520       -1.34240
H        -19.54751      -12.68388       -0.27499
H        -20.31987      -11.27308       -1.05554
O        -22.10944      -12.88153       -0.18244
H        -21.13991      -14.22242       -1.46755
H        -21.90591      -12.81439       -2.26707
H        -22.94979      -13.36095       -0.18948
H        -18.30814      -11.94862       -2.23056
H        -18.89505      -13.47653       -2.50081
H        -19.61638      -12.17085       -3.22587
