27
HEMPA.gamout	Energy:   -1423.1623211
N         -2.39602        2.60071        1.67934
C         -1.29181        1.66391        1.86521
C         -0.38587        1.57413        0.64292
H         -0.67704        1.92878        2.75065
H         -1.71151        0.66374        2.04451
H         -0.97974        1.17118       -0.19980
O          0.69802        0.73996        0.99401
H         -0.04721        2.58672        0.34378
H          1.19920        0.52975        0.19685
C         -2.09469        3.99885        1.86695
C         -3.68994        2.16017        2.15864
P         -2.54859        5.03981        0.43619
H         -1.01326        4.15085        2.01504
H         -2.59095        4.44919        2.75078
O         -4.07418        4.48806        0.08094
O         -1.63214        4.42178       -0.75549
P         -4.46280        0.96382        1.00365
H         -3.65908        1.69044        3.16427
H         -4.37681        3.01538        2.22848
H         -4.66572        5.23813       -0.09114
H         -1.41337        5.10046       -1.41277
O         -4.53538        1.74426       -0.40965
H         -4.44232        2.71558       -0.33063
O         -5.98721        0.96801        1.60641
H         -6.39636        0.09671        1.48892
O         -3.85483       -0.39202        0.90761
O         -2.50215        6.51937        0.58359
