15
HEPTAFLUOROPROPYL_METHYL_ETHER.gamout	Energy:    -927.2673112
F          1.98454        0.15701        0.35211
F          0.42946        1.24338        1.45498
F         -0.10919        2.74581       -0.80511
F          1.43264        1.67728       -1.89691
F          0.09630       -0.67040       -1.46296
F         -1.43572        0.40655       -0.37095
F         -0.33241       -1.18622        0.59714
O          2.00394        2.83506       -0.06696
C          0.82444        0.82814        0.23745
C          1.06589        2.07921       -0.65114
C         -0.24354       -0.17932       -0.27202
C          2.36594        4.04894       -0.73783
H          1.49573        4.71724       -0.82479
H          2.77616        3.83367       -1.73623
H          3.13469        4.51894       -0.11341
