12
HEXAFLUOROISOPROPANOL.gamout	Energy:    -788.8946040
F         -1.63961       -1.27752       -0.94789
C         -1.52720       -0.40698        0.05484
C         -0.23079        0.41876        0.00410
C          1.04649       -0.42322       -0.10084
F          1.11327       -1.09714       -1.24933
F          2.11666        0.37525       -0.01692
F          1.10761       -1.30475        0.90940
O         -0.23963        1.27556       -1.09118
H         -0.16934        0.94465        0.97780
F         -2.56642        0.45562       -0.03581
F         -1.64010       -1.06661        1.20965
H         -1.02567        1.83569       -1.03635
