20
HEXAMETHYLENEIMINE.gamout	Energy:    -290.7903902
C         -5.98851        0.83832        0.44580
C         -6.27822       -0.28423       -0.58774
C         -4.63808        0.72224        1.16456
C         -5.04560       -1.04501       -1.09077
C         -3.41840        1.08313        0.25438
C         -3.98732       -0.17965       -1.80378
N         -3.64168        1.08929       -1.18031
H         -6.04680        1.82653       -0.04328
H         -6.79188        0.84673        1.19968
H         -6.82963        0.14024       -1.44498
H         -6.96077       -1.02155       -0.13320
H         -4.52591       -0.29653        1.57175
H         -4.63913        1.39353        2.03855
H         -5.36325       -1.84657       -1.78011
H         -4.57370       -1.56735       -0.24097
H         -2.58088        0.39655        0.47047
H         -3.05512        2.08806        0.52602
H         -4.32378        0.04733       -2.82983
H         -3.06826       -0.78502       -1.91654
H         -4.30900        1.81210       -1.43629
