8
HEXACHLOROETHANE.gamout	Energy:   -2836.0751388
Cl         0.36116        1.74610        0.51941
C          1.04517        0.17143        0.02582
Cl         2.78715        0.37447       -0.32249
Cl         0.84613       -1.00046        1.36118
C          0.29493       -0.35674       -1.26875
Cl         0.49793        0.81598       -2.60391
Cl         0.97926       -1.93139       -1.76193
Cl        -1.44835       -0.56104       -0.92296
