11
HEXACHLOROCYCLOPENTADIENE.gamout	Energy:   -2950.2275726
C         -3.06103       -0.72401        0.38738
C         -3.00511        0.73928        0.12723
C         -1.83950       -1.26095        0.18300
Cl        -4.48693       -1.54047        0.86946
C         -1.75034        1.08169       -0.23371
Cl        -4.36089        1.77318        0.28078
C         -0.87857       -0.16155       -0.23410
Cl        -1.35331       -2.89045        0.34061
Cl        -1.14320        2.62538       -0.64057
Cl         0.46078       -0.00072        0.95578
Cl        -0.22045       -0.47898       -1.87805
