12
HEXAFLUOROBENZENE.gamout	Energy:    -826.6479799
F          7.14030        2.87732       -0.94067
C          6.33259        1.85972       -0.67073
F          4.43800        3.21809       -1.03554
C          4.94720        2.03412       -0.71927
F          2.78148        1.12755       -0.48108
C          4.09739        0.96185       -0.43480
F          3.82534       -1.30353        0.16832
C          4.63234       -0.28507       -0.10177
F          6.52688       -1.64350        0.26298
C          6.01757       -0.45946       -0.05324
F          8.18315        0.44634       -0.29122
C          6.86715        0.61273       -0.33768
