9
HEXAFLUOROPROPYLENE.gamout	Energy:    -712.5041672
C         35.02327       30.88623        0.16981
C         33.70170       30.17971        0.04857
C         36.22563       30.42731       -0.19687
F         34.92958       32.10299        0.71283
F         32.84805       30.90254       -0.69061
F         33.83884       28.97867       -0.51917
F         33.14077       30.01600        1.25569
F         37.32072       31.12908       -0.04517
F         36.45520       29.25818       -0.73580
