27
HEXAMETHYLDISILOXANE.gamout	Energy:    -893.1488257
Si        -1.60423       -0.28405       -0.13130
Si         1.68851       -0.08422       -0.01162
O          0.05225       -0.22174       -0.28016
C         -2.22547        1.38903        0.48726
C         -2.31072       -0.66493       -1.83740
C         -2.05756       -1.64458        1.09759
C          2.56176       -0.30254       -1.66894
C          2.05423        1.62941        0.69547
C          2.22555       -1.42764        1.20238
H         -3.32436        1.40166        0.58665
H         -1.79826        1.63414        1.47468
H         -1.94197        2.19958       -0.20556
H         -1.92378       -1.62620       -2.21628
H         -3.41231       -0.72698       -1.82336
H         -2.02429        0.11202       -2.56650
H         -3.15100       -1.73338        1.21537
H         -1.67384       -2.62615        0.77148
H         -1.63201       -1.43765        2.09465
H          2.34017       -1.28826       -2.11276
H          2.23370        0.46328       -2.39237
H          3.65724       -0.21890       -1.56465
H          3.13501        1.77287        0.86520
H          1.71565        2.42369        0.00835
H          1.54187        1.78722        1.66009
H          1.70769       -1.32520        2.17128
H          1.99425       -2.43279        0.80995
H          3.31075       -1.38664        1.39658
