22
HEXAMETHYLENETETRAMINE.gamout	Energy:    -454.2072730
C         -0.44864       -1.57219        0.39901
N         -1.40369       -0.51411        0.03589
N          0.94356       -1.09973        0.37221
C         -1.05775       -0.03084       -1.30937
C         -1.22825        0.60069        0.97950
N          0.31863        0.48073       -1.37949
C          1.22996       -0.60290       -0.98236
C          0.45001        1.56961       -0.40025
C          1.05911        0.02951        1.30715
N          0.14347        1.12821        0.96787
H         -0.68469       -1.93894        1.41098
H         -0.55636       -2.41403       -0.30427
H         -1.75628        0.77209       -1.59438
H         -1.17246       -0.85582       -2.03104
H         -1.92893        1.40989        0.71682
H         -1.47293        0.25472        1.99722
H          2.26858       -0.23471       -1.01990
H          1.13626       -1.43533       -1.69850
H          1.48004        1.96050       -0.43121
H         -0.23372        2.38869       -0.67671
H          2.09554        0.40448        1.29247
H          0.83759       -0.32290        2.32805
