12
HEXACHLOROBENZENE.gamout	Energy:   -2988.3207879
C          6.33883        1.86719       -0.67263
C          6.87779        0.61061       -0.33710
C          4.94265        2.04346       -0.72171
Cl         7.39223        3.19572       -1.02505
Cl         4.27812        3.58786       -1.13442
C          4.08686        0.96312       -0.43525
C          4.62658       -0.29321       -0.09978
Cl         2.37076        1.17999       -0.49565
Cl         3.57428       -1.62034        0.25226
C          6.02210       -0.46970       -0.05057
Cl         6.68587       -2.01365        0.36195
Cl         8.59350        0.39382       -0.27671
