8
HEXAFLUOROETHANE.gamout	Energy:    -674.5038717
C          2.04014        1.01462        0.00019
C          0.49495        1.01432       -0.00022
F          0.04395       -0.23836       -0.00006
F          0.04518        1.64043       -1.08543
F          0.04526        1.64077        1.08463
F          2.49086        2.26725        0.00005
F          2.48976        0.38863        1.08547
F          2.48993        0.38830       -1.08464
