30
HEXAMETHYLBENZENE.gamout	Energy:    -467.4669494
C          2.16174        3.15131        3.52804
C          0.75978        3.54322        3.96376
C          2.33978        2.23233        2.47113
C          3.28560        3.72171        4.16378
C          1.13336        1.55111        1.84811
C          3.63907        1.93093        2.00933
C          3.09655        4.63962        5.35967
C          4.58478        3.42026        3.70182
C          3.82700        1.01280        0.81350
C          4.76246        2.50154        2.64513
C          5.79060        4.10160        4.32499
C          6.16368        2.10961        2.20941
H          0.05100        3.51002        3.12489
H          0.36044        2.87651        4.75114
H          0.72990        4.56611        4.36224
H          1.38426        0.55254        1.46617
H          0.32345        1.41678        2.57808
H          0.71357        2.12610        1.00116
H          3.00160        5.70242        5.06721
H          2.19383        4.38004        5.92851
H          3.94132        4.57207        6.05810
H          3.92043       -0.05014        1.10599
H          2.98232        1.08153        0.11503
H          4.73007        1.27121        0.24480
H          6.21088        3.52640        5.17157
H          6.60024        4.23671        3.59493
H          5.53894        5.09973        4.70740
H          6.56336        2.77618        1.42201
H          6.87216        2.14283        3.04840
H          6.19297        1.08676        1.81111
