18
HEXANENITRILE.gamout	Energy:    -289.5990674
N          3.61187        0.44256        0.01518
C         -1.27475       -0.40018       -0.01022
C          0.09586        0.28273       -0.02782
C         -2.45039        0.58485       -0.01205
C          1.26161       -0.72564       -0.00290
C         -3.81798       -0.09797        0.03119
C          2.57964       -0.08441        0.00748
H         -1.36127       -1.07110       -0.88543
H         -1.34758       -1.05327        0.87965
H          0.19162        0.91556       -0.92684
H          0.19275        0.96050        0.83756
H         -2.38382        1.22405       -0.91131
H         -2.34919        1.26774        0.85104
H          1.21135       -1.39337       -0.88063
H          1.18804       -1.37681        0.88556
H         -3.93220       -0.71416        0.93907
H         -3.96543       -0.76074       -0.83828
H         -4.63434        0.64143        0.02703
