16
HEXENE-5-NITRILES.gamout	Energy:    -288.3707997
C         53.93258        8.97645       -0.00983
C         52.57307        8.33352       -0.33106
C         53.86657       10.51624       -0.03026
C         55.14965       11.15688        0.27119
N         56.17185       11.64691        0.51131
C         52.63147        6.83117       -0.36763
C         51.94585        6.00965        0.43155
H         54.27786        8.63736        0.98051
H         54.68859        8.63810       -0.73857
H         52.23018        8.70935       -1.31420
H         51.82230        8.65930        0.41004
H         53.53056       10.87211       -1.01983
H         53.12288       10.87820        0.70100
H         53.30947        6.39817       -1.11610
H         52.04277        4.92372        0.35083
H         51.25710        6.38984        1.19418
