36
HMPYR+1.gamout	Energy:    -487.4472053
N          0.33093       -0.14987       -0.33180
C         -0.49472        1.11721       -0.24584
C          1.39295        0.08141        0.73470
C          1.70248        1.58687        0.70792
H          2.24869       -0.57310        0.52730
H          0.94506       -0.22688        1.68891
C          0.52074        2.24070       -0.05372
H         -1.14333        1.00042        0.63348
H         -1.12969        1.20371       -1.13468
H          0.06755        3.07417        0.49950
H          0.84782        2.64319       -1.02288
H          2.66148        1.79462        0.21380
H          1.78930        1.96247        1.73664
C         -0.47983       -1.36385       -0.01775
H         -0.94403       -1.24078        0.96795
H          0.17909       -2.24103       -0.01318
H         -1.25814       -1.49121       -0.77770
C          1.01638       -0.31935       -1.68528
C          0.11079       -0.34579       -2.93017
H          1.57357       -1.25939       -1.58546
H          1.75783        0.48702       -1.76110
C          0.07652        0.95073       -3.75637
H         -0.91664       -0.65162       -2.66666
H          0.48382       -1.16112       -3.57123
C         -0.82049        0.84082       -4.99884
H          1.10653        1.20117       -4.07188
H         -0.26157        1.79517       -3.12975
C         -0.82569        2.08324       -5.90205
H         -1.85625        0.61749       -4.67755
H         -0.49565       -0.02971       -5.59601
C         -1.39222        3.35123       -5.25878
H         -1.41661        1.84287       -6.80144
H          0.20171        2.27475       -6.26189
H         -2.42222        3.19558       -4.89348
H         -1.42435        4.17556       -5.98674
H         -0.78219        3.70053       -4.40777
