33
HMPY+1.gamout	Energy:    -523.1311801
C         -3.15543        2.01617       -0.01309
C         -2.03297        1.01453       -0.01177
H         -2.84467        2.96148       -0.48160
H         -3.46435        2.24610        1.02185
H         -4.03915        1.63767       -0.54760
C         -0.67977        1.39890        0.02105
C          0.32259        0.43206        0.04497
H         -0.41745        2.45989        0.02449
C         -2.29879       -0.35176       -0.02088
C         -0.01950       -0.91455        0.03835
H          1.37753        0.70916        0.06635
N         -1.31566       -1.28523        0.00630
H         -3.31940       -0.73817       -0.05082
H          0.72661       -1.70597        0.05357
C         -1.74238       -2.72611       -0.00565
C         -0.63591       -3.77273        0.01614
H         -2.36212       -2.84826       -0.90785
H         -2.40227       -2.85180        0.86661
C         -1.24578       -5.18616       -0.01292
H         -0.01579       -3.66159        0.92313
H          0.02961       -3.64597       -0.85600
C         -0.20476       -6.31284        0.01191
H         -1.87288       -5.28837       -0.91737
H         -1.92978       -5.30046        0.84722
C         -0.83146       -7.71292       -0.03601
H          0.41544       -6.21906        0.92303
H          0.48751       -6.19117       -0.84180
C          0.19593       -8.84629       -0.00353
H         -1.44935       -7.80043       -0.94849
H         -1.53037       -7.82681        0.81271
H          0.89291       -8.78445       -0.85590
H         -0.29937       -9.82806       -0.05077
H          0.79612       -8.82138        0.92150
