30
HPY+1.gamout	Energy:    -483.8687757
C         -1.28502       -1.46605       -0.01227
C          0.14387       -0.96757        0.21371
H         -1.62121       -1.27439       -1.04524
H         -1.99856       -0.97037        0.66719
H         -1.35844       -2.54992        0.16373
C          0.30809        0.54086       -0.01535
H          0.83458       -1.51320       -0.45499
H          0.46156       -1.21560        1.24297
C          1.74494        1.04009        0.19183
H         -0.37260        1.09108        0.66067
H         -0.01678        0.79176       -1.04267
C          1.89900        2.55187       -0.03035
H          2.42193        0.49895       -0.49489
H          2.08054        0.78671        1.21396
C          3.35905        3.00097        0.07718
H          1.29167        3.11064        0.70393
H          1.50904        2.82142       -1.02890
N          3.51611        4.47105       -0.11320
H          3.98996        2.50737       -0.67800
H          3.78076        2.76361        1.06420
C          3.77982        5.26965        0.94514
C          3.88635        6.64320        0.78998
C          3.71242        7.20132       -0.47816
C          3.43827        6.36047       -1.56074
C          3.34822        4.99487       -1.34938
H          3.90433        4.77697        1.91002
H          3.14009        4.28859       -2.15370
H          3.29607        6.75345       -2.56810
H          4.10358        7.26244        1.66168
H          3.79117        8.28106       -0.62335
