36
HQUIN+1.gamout	Energy:    -637.2968433
C         -1.58556       -1.23830        0.20007
C         -2.28751       -2.49712        0.25680
C         -1.55451       -3.71523        0.29932
C         -0.17081       -1.27011        0.18896
C          0.50490       -2.47564        0.22751
H          0.40807       -0.35857        0.14775
C         -0.18026       -3.71020        0.28187
H         -2.11147       -4.65347        0.34724
C         -3.69678       -2.51721        0.26989
H          1.59738       -2.46644        0.21474
H          0.38038       -4.64602        0.31159
C         -4.40088       -1.33041        0.22683
H         -4.21801       -3.47639        0.31348
N         -2.34322       -0.06809        0.15815
C         -3.68566       -0.13771        0.17133
H         -5.49037       -1.29799        0.23582
H         -4.20950        0.81878        0.13707
C         -1.85883        1.37986        0.09632
C         -0.38525        1.77368        0.06436
H         -2.32819        1.85837        0.96891
H         -2.34636        1.78740       -0.80181
C         -0.26024        3.30725       -0.00152
H          0.11675        1.34551       -0.81723
H          0.13748        1.42105        0.96698
C          1.20180        3.77214       -0.03497
H         -0.77180        3.75807        0.86879
H         -0.78776        3.68281       -0.89772
C          1.37504        5.29438       -0.10617
H          1.70853        3.30748       -0.90154
H          1.72357        3.38927        0.86217
C          2.84051        5.73301       -0.13609
H          0.86849        5.76013        0.75911
H          0.85631        5.67939       -1.00316
H          3.37957        5.40355        0.76821
H          2.92489        6.82882       -0.19100
H          3.36842        5.31507       -1.00986
