6
HYDRAZINE.gamout	Energy:    -111.7077061
N          1.85422        0.90123       -0.01855
N          0.48451        0.87442        0.52643
H          2.25273        1.77086        0.34982
H          2.35419        0.19225        0.52746
H         -0.01477        1.58550       -0.01748
H          0.08504        0.00627        0.15559
