76
HYDROCORTISONE_21-HEMIPIMELATE.gamout	Energy:   -1690.6451798
O          1.15118       -3.53578       -0.58606
O         -0.50846        1.18797        0.86923
O          3.15598       -3.18952        2.24355
O          4.45062       -1.42520        0.61522
O         -6.76022        1.72778       -2.03701
O          5.93599       -1.72259       -1.04721
O          1.42627        2.66121       -0.82567
O          2.62242        3.44227       -2.54342
C          0.33078       -1.88160        0.99964
C         -1.07128       -2.53129        1.02048
C         -2.22712       -1.53831        1.22575
C         -2.17508       -0.43541        0.12936
C          1.21963       -3.17016        0.79413
C          0.36382       -0.87251       -0.15190
C         -3.35272        0.61448        0.22565
C         -0.76741        0.17928       -0.09728
C         -0.91093       -3.72729        1.97209
C          0.53453       -4.22552        1.70034
C         -3.58331       -2.25732        1.15082
C          0.70338       -1.21411        2.33299
C         -4.67150       -0.15101        0.21610
C         -4.78236       -1.30070        1.18356
C         -3.29516        1.56652       -0.99064
C         -3.32484        1.44150        1.53295
C          2.70078       -2.94692        1.15092
C         -4.57969        2.35403       -1.24389
C         -5.72877        0.21900       -0.54177
C         -5.78718        1.44474       -1.36112
C          3.59571       -2.40382        0.03590
C          5.59982       -1.15433       -0.03869
C          6.39554       -0.08185        0.67514
C          5.57545        1.10261        1.20706
C          4.87257        1.94051        0.13239
C          3.98083        3.03749        0.72547
C          3.35676        3.99357       -0.30615
C          2.47516        3.35613       -1.35275
H         -1.20374       -2.95712        0.00974
H         -2.12787       -1.07566        2.22349
H         -2.36805       -0.97640       -0.81592
H          1.31978       -0.32553       -0.17532
H          0.29115       -1.42682       -1.09933
H         -0.80055        0.64560       -1.10018
H         -1.65399       -4.51418        1.78391
H         -1.02745       -3.42020        3.02489
H          0.53755       -5.20080        1.18413
H          1.11576       -4.35805        2.62247
H         -3.62365       -2.84365        0.21416
H         -3.68499       -2.97997        1.97509
H         -0.00583       -0.41913        2.58558
H          1.69492       -0.74465        2.26035
H          0.75011       -1.92737        3.16559
H         -5.71443       -1.85492        1.00208
H         -4.87646       -0.87497        2.20101
H         -2.45906        2.26476       -0.85717
H         -3.07563        0.97300       -1.89551
H         -3.26212        0.80040        2.42241
H         -2.45769        2.10729        1.54708
H         -4.24627        2.03519        1.62491
H          1.26849       -4.49244       -0.65195
H         -4.78228        3.06517       -0.42165
H         -4.51026        2.95243       -2.16228
H          0.28659        1.67233        0.59807
H         -6.65383       -0.36302       -0.52147
H          3.01844       -1.97038       -0.79156
H          4.19673       -3.22495       -0.39274
H          6.88409       -0.57931        1.53048
H          7.19328        0.23373       -0.01355
H          4.83537        0.71501        1.92549
H          6.25430        1.75123        1.78624
H          5.62703        2.39371       -0.53562
H          4.25892        1.28341       -0.51068
H          4.57297        3.65406        1.42236
H          3.18375        2.57784        1.33458
H          4.13486        4.53988       -0.85841
H          2.74178        4.73818        0.22631
H          0.92525        2.32731       -1.59174
