14
HYDROQUINONE.gamout	Energy:    -382.1964930
O         -0.23019        2.86371        0.19398
C          1.11572        2.64727        0.16148
C          2.05474        3.68552        0.09423
C          1.56886        1.32378        0.19742
C          3.42204        3.40770        0.06347
C          2.93614        1.04598        0.16660
C          3.87517        2.08418        0.09941
O          5.22113        1.86770        0.06691
H         -0.40228        3.81360        0.16358
H          1.71465        4.72580        0.06543
H          0.83533        0.51696        0.24980
H          4.15555        4.21450        0.01109
H          3.27627        0.00574        0.19539
H          5.39313        0.91780        0.09735
