79
HYDROCORTISONE_METHYLPIMELATE.gamout	Energy:   -1729.8960980
O          0.61940       -1.22816        1.58385
O         -2.80767       -0.79248       -2.31047
O          2.88204        0.03871       -0.73250
O          3.60272       -2.64304       -0.24700
O         -8.87036       -0.77080        1.01586
O          3.37162       -1.88719        1.85076
O          5.87852        2.01135       -2.18744
O          5.70218        2.97989       -0.16434
C         -0.48480       -0.11324       -0.24919
C         -1.30116        0.73096        0.76197
C         -2.72411        1.08772        0.29630
C         -3.50409       -0.21003       -0.05258
C          0.85345       -0.26716        0.56687
C         -1.25715       -1.41212       -0.49697
C         -5.00054        0.04393       -0.50100
C         -2.72043       -1.20380       -0.94682
C         -0.32749        1.84184        1.18447
C          1.06340        1.15326        1.17213
C         -3.48374        1.84701        1.39591
C         -0.22011        0.62830       -1.56778
C         -5.68599        0.85396        0.59344
C         -4.96139        2.08909        1.06182
C         -5.71824       -1.31157       -0.68255
C         -5.11976        0.87275       -1.80412
C          2.06592       -0.72399       -0.26505
C         -7.24414       -1.22964       -0.69194
C         -6.91337        0.54823        1.07020
C         -7.77948       -0.51906        0.53524
C          2.25184       -2.24222       -0.49235
C          4.05853       -2.39956        0.98786
C          5.50153       -2.79157        1.16585
C          6.38623       -1.56190        1.44951
C          6.54457       -0.61381        0.25565
C          7.44671        0.58847        0.55310
C          7.60139        1.56118       -0.62870
C          6.30266        2.27416       -0.93914
C          4.60561        2.55014       -2.55163
H         -1.41728        0.07660        1.64375
H         -2.66040        1.72982       -0.59982
H         -3.59374       -0.75171        0.90762
H         -1.25157       -2.00149        0.43083
H         -0.76362       -2.03564       -1.26488
H         -3.21874       -2.18438       -0.84712
H         -0.57233        2.24704        2.17603
H         -0.35167        2.68971        0.47936
H          1.80417        1.72175        0.59455
H          1.47480        1.03059        2.18467
H         -3.00104        2.81499        1.60201
H         -3.42606        1.26318        2.33296
H          0.33004        1.56679       -1.42688
H         -1.16311        0.84660       -2.07900
H          0.37134        0.00306       -2.25438
H         -5.03137        2.84481        0.25653
H         -5.48030        2.52076        1.92925
H         -5.41669       -1.98465        0.13885
H         -5.37541       -1.77904       -1.61506
H         -6.16661        1.16877       -1.96787
H         -4.76547        0.29715       -2.66428
H         -4.52637        1.79544       -1.75630
H          1.47429       -1.40944        2.01275
H         -7.69789       -2.22906       -0.73498
H         -7.61302       -0.68027       -1.57813
H         -2.28698       -1.40824       -2.84287
H         -7.36538        1.15120        1.86147
H          2.07707       -2.45492       -1.55646
H          1.56158       -2.83298        0.12201
H          5.54754       -3.47378        2.02868
H          5.84105       -3.33669        0.27343
H          5.95294       -1.02164        2.30880
H          7.37520       -1.92628        1.77537
H          6.95258       -1.17492       -0.60560
H          5.55143       -0.25691       -0.06931
H          7.04736        1.15560        1.41190
H          8.45034        0.23786        0.84679
H          8.34155        2.33268       -0.36370
H          7.95924        1.04491       -1.53199
H          4.49581        2.36472       -3.62784
H          4.56026        3.62957       -2.34266
H          3.80527        2.03995       -1.99510
