40
HYDROMORPHONE.gamout	Energy:    -938.4133868
O         -1.91478       -0.43929        1.27877
O         -2.61650       -2.43115       -0.43091
O         -3.65871        1.82015        0.56456
N          3.12577        0.16622        0.47618
C          0.38042       -0.67654        0.65686
C          1.35552       -1.27558       -0.36712
C          2.35148       -0.13906       -0.73124
C         -0.93169       -1.45368        0.98440
C          1.18550       -0.31312        1.92579
C         -0.25094        0.55030        0.05765
C          0.63213       -1.94869       -1.53610
C          1.66473        1.08586       -1.41738
C          2.33889        0.64015        1.60330
C          0.30972        1.44127       -0.84161
C         -0.35562       -3.00343       -1.00357
C         -1.43913       -2.33034       -0.18685
C         -1.55151        0.64350        0.51411
C          4.33270        0.93054        0.26440
C         -0.50671        2.52335       -1.22115
C         -2.37383        1.70489        0.14410
C         -1.81009        2.65901       -0.72391
H          1.96613       -2.04511        0.13286
H          3.07046       -0.54588       -1.45848
H         -0.83721       -2.09679        1.87640
H          1.58478       -1.24403        2.36228
H          0.52452        0.14947        2.67428
H          1.36257       -2.43186       -2.20284
H          0.08280       -1.21165       -2.14502
H          1.53975        0.85627       -2.49116
H          2.35183        1.94793       -1.38792
H          1.93731        1.66494        1.43664
H          3.00392        0.71276        2.47850
H          0.18783       -3.72303       -0.36269
H         -0.84204       -3.56633       -1.81085
H          4.96011        0.89164        1.16971
H          4.16735        2.00827        0.03160
H          4.91817        0.49779       -0.56261
H         -0.13534        3.26663       -1.93165
H         -2.43798        3.49642       -1.03592
H         -3.89412        1.00887        1.03885
