33
IBUPROFEN.gamout	Energy:    -655.8195987
C          0.06117       -1.58748       -0.10542
C         -1.32496       -1.40945        0.01831
C         -1.92064       -0.40957       -0.76548
C         -1.16100        0.38498       -1.62529
C          0.22361        0.20381       -1.74369
C          0.82335       -0.79911       -0.97005
H          0.55759       -2.36064        0.48781
C         -2.16024       -2.26581        0.94709
H         -3.00067       -0.24668       -0.70612
H         -1.65521        1.15980       -2.21764
C          1.02815        1.07152       -2.70452
H          1.90193       -0.95791       -1.03232
H         -1.52954       -3.06603        1.37215
H         -2.93915       -2.77472        0.35153
C         -2.86113       -1.51644        2.10403
H         -3.40731       -0.66286        1.66053
C         -1.86319       -0.95513        3.12044
C         -3.89097       -2.42052        2.79075
H         -1.14271       -0.26719        2.65093
H         -1.28841       -1.76698        3.60060
H         -2.38275       -0.40012        3.91778
C          2.07817        1.87335       -1.94865
H          0.34599        1.83310       -3.10707
C          1.63107        0.26712       -3.86779
O          1.95489        3.01894       -1.59593
H         -3.40356       -3.29538        3.25564
H         -4.64046       -2.79785        2.07643
H         -4.42729       -1.87734        3.58508
H          2.30772       -0.51822       -3.50206
H          2.20008        0.92180       -4.54608
H          0.82700       -0.21196       -4.44517
O          3.19746        1.15828       -1.69134
H          3.78821        1.74522       -1.18819
