9
IMIDAZOLE.gamout	Energy:    -225.9213172
N          0.74061       -0.89959       -0.00000
N         -1.14706        0.26241       -0.00012
C          1.10758        0.42839       -0.00000
C         -0.62580       -0.94256       -0.00008
C         -0.07999        1.12664       -0.00008
H          1.36732       -1.69490        0.00007
H          2.14716        0.74633        0.00008
H         -1.17786       -1.88335       -0.00009
H         -0.21624        2.20757       -0.00010
