19
INDANE.gamout	Energy:    -348.5020061
C          3.34378        3.20677        0.88827
C          3.34806        1.80626        0.88802
C          4.74930        3.76417        0.88779
C          2.13512        3.90806        0.88901
C          4.75690        1.25743        0.88644
C          2.14371        1.09792        0.88874
C          5.67655        2.51361        0.89176
C          0.93037        3.19959        0.88965
C          0.93476        1.79923        0.88960
H          4.92262        4.40499        0.00517
H          4.92146        4.40988        1.76699
H          2.12870        5.00163        0.88932
H          4.93342        0.61141        1.76453
H          4.93387        0.61916        0.00270
H          2.14360        0.00437        0.88887
H          6.34297        2.51616        0.01547
H          6.33343        2.51521        1.77524
H         -0.01983        3.73977        0.89036
H         -0.01207        1.25318        0.89021
