17
INDENE.gamout	Energy:    -347.2877411
C          2.69173        1.60167        2.04763
C          2.11250        2.84116        2.40371
C          1.86655        0.97772        0.94864
C          3.83999        1.14905        2.68757
C          0.92661        3.04655        1.56575
C          2.68688        3.62909        3.40477
C          0.77329        1.99499        0.73221
C          4.41493        1.94107        3.69134
C          3.84243        3.16841        4.04440
H          2.45726        0.80412        0.02880
H          1.45998       -0.00969        1.23941
H          4.29325        0.19143        2.41711
H          0.27663        3.92193        1.61917
H          2.24413        4.58818        3.68460
H         -0.02134        1.87176       -0.00519
H          5.31776        1.59768        4.20257
H          4.30432        3.77254        4.82933
