26
INDIGOIDINE.gamout	Energy:    -904.7107248
O         -3.60438        0.40266        0.11084
O          0.22209       -1.97243       -2.57040
O         -3.45034        3.16036       -3.45743
O          0.06478       -4.73410        0.99477
N         -3.45495        1.71274       -1.69568
N          0.07088       -3.28480       -0.76559
N         -1.46371        1.79764       -4.69258
N         -1.92267       -3.37197        2.22968
C         -1.93876       -0.21387       -1.56442
C         -1.44502       -1.35820       -0.89637
C         -1.44189        0.23661       -2.83273
C         -1.94258       -1.80932        0.37131
C         -3.03936        0.60325       -0.95379
C         -0.34398       -2.17459       -1.50664
C         -1.90928        1.34414       -3.49589
C         -1.47594       -2.91750        1.03381
C         -2.99614        2.16713       -2.91367
C         -0.38886       -3.74025        0.45167
H         -0.64519       -0.34105       -3.29134
H         -2.73958       -1.23206        0.82986
H         -4.20211        2.25192       -1.26265
H          0.81845       -3.82356       -1.19846
H         -1.89967        2.63143       -5.06891
H         -0.72485        1.33078       -5.19893
H         -1.48746       -4.20639        2.60549
H         -2.66201       -2.90555        2.73572
