16
INDOLE.gamout	Energy:    -363.3341970
C          0.75703        1.62754        0.48770
C          1.76926        0.62557        0.43201
C         -0.44257        0.98050        0.94712
C          1.08562        2.94551        0.11767
N          1.19539       -0.55980        0.83967
C          3.07774        0.91085        0.02116
C         -0.13273       -0.34255        1.14765
C          2.38346        3.23073       -0.29015
C          3.37108        2.22308       -0.33821
H         -1.41494        1.44112        1.10844
H          0.32853        3.73329        0.15139
H          1.67205       -1.44863        0.90279
H          3.84341        0.13199       -0.01661
H         -0.76075       -1.16326        1.49143
H          2.64827        4.25072       -0.57930
H          4.38310        2.47925       -0.66366
