8
IODOETHANE.gamout	Energy:    -376.8054745
C          0.19316        0.10091        0.02581
C          1.70524        0.19808        0.02576
I          2.42072        2.27039        0.02580
H         -0.10051       -0.96421        0.02537
H         -0.24732        0.57216       -0.86613
H         -0.24718        0.57142        0.91820
H          2.16292       -0.24261       -0.86845
H          2.16297       -0.24251        0.91998
