12
IODOBENZENE.gamout	Energy:    -529.0263243
I         -1.34274       -0.00013       -0.00005
C          0.78746        0.00065       -0.00018
C          1.47689        1.21588        0.00034
C          2.87538        1.20795        0.00031
C          3.57630       -0.00031       -0.00049
C          2.87463       -1.20804       -0.00100
C          1.47621       -1.21483        0.00190
H          0.92987        2.15945        0.00060
H          3.41548        2.15814        0.00086
H          4.66856       -0.00060       -0.00090
H          3.41404       -2.15858       -0.00167
H          0.92856       -2.15798        0.00157
