23
ISO-PROPYL_ISO-BUTYRATE.gamout	Energy:    -425.0767931
O         34.21442       29.68946        0.38977
C         35.30742       29.27618       -0.28310
C         36.51461       30.15078        0.01894
O         35.31324       28.32883       -1.03301
C         32.97685       28.96148        0.19807
C         36.27641       31.59414       -0.44513
C         36.88638       30.08512        1.50682
C         32.91152       27.80107        1.18304
C         31.85397       29.96900        0.37366
H         37.32956       29.71036       -0.57613
H         32.98416       28.56522       -0.82920
H         37.18266       32.19945       -0.28649
H         36.02735       31.63550       -1.51717
H         35.44999       32.05682        0.11641
H         37.79773       30.67318        1.69729
H         37.08010       29.04954        1.82712
H         36.07657       30.49148        2.13227
H         31.96936       27.24371        1.05659
H         33.74368       27.10281        1.01265
H         32.95944       28.16692        2.22166
H         30.87812       29.48537        0.20921
H         31.95411       30.79522       -0.34620
H         31.86066       30.39397        1.39060
