20
ISO-CAPROIC_ACID.gamout	Energy:    -385.8240249
C          1.72328        1.50968       -0.09749
C          2.98721        0.65513       -0.02571
C          1.96680        3.02811       -0.06399
C          2.70860       -0.82941        0.06704
C          2.76400        3.52868       -1.27404
C          0.63819        3.78428        0.05638
O          3.85320       -1.54716        0.08342
O          1.62177       -1.34906        0.12538
H          1.15488        1.24452       -1.00682
H          1.07225        1.22787        0.74602
H          3.60309        0.92217        0.85249
H          3.65195        0.80248       -0.89371
H          2.55780        3.25052        0.84634
H          2.90689        4.62037       -1.22817
H          3.76476        3.07298       -1.33597
H          2.23423        3.30314       -2.21640
H          0.80470        4.87090        0.12970
H          0.07499        3.46967        0.94964
H         -0.00539        3.60564       -0.82294
H          3.59130       -2.48152        0.14884
