29
ISOBUTYL_VALERATE.gamout	Energy:    -503.5869527
O          6.96268        2.03778        1.29444
C          5.76518        2.37802        1.80959
C          4.66299        1.50453        1.24542
O          5.61935        3.26179        2.61837
C          8.10094        2.77809        1.75623
C          3.26272        1.90570        1.70318
C          9.34983        2.23252        1.07719
C          2.16338        0.99538        1.14853
C         10.55731        3.09853        1.44770
C          9.58329        0.75899        1.42003
C          0.75712        1.39051        1.60226
H          4.89750        0.46432        1.53643
H          4.75538        1.52036        0.14539
H          8.16862        2.69276        2.85508
H          7.94950        3.84520        1.52538
H          3.06929        2.95118        1.40571
H          3.23458        1.90440        2.80609
H          9.18521        2.31270       -0.01328
H          2.36697       -0.04836        1.45254
H          2.20725        0.99857        0.04363
H         10.40479        4.15216        1.16357
H         11.46739        2.74393        0.93934
H         10.75255        3.06886        2.53365
H          8.71174        0.14673        1.14673
H          9.76363        0.62858        2.50151
H         10.46041        0.36401        0.88481
H          0.66473        1.35910        2.70106
H          0.50112        2.41433        1.28081
H         -0.00350        0.71204        1.18524
