15
ISOBUTANOL.gamout	Energy:    -233.3420500
C          2.67063        2.34452        0.99062
C          1.52259        2.15454        1.98013
C          0.85248        0.79512        1.76604
C          1.99758        2.33688        3.42398
O          3.21665        3.63845        1.15420
H          3.43422        1.55572        1.16893
H          2.28971        2.19446       -0.04116
H          0.78614        2.94919        1.75718
H          0.48507        0.68122        0.73295
H         -0.00715        0.66641        2.44268
H          1.55636       -0.03196        1.96512
H          2.45733        3.32585        3.56027
H          2.75109        1.57389        3.68943
H          1.15947        2.24046        4.13275
H          3.95164        3.74102        0.53815
