13
ISOBUTYRALDEHYDE.gamout	Energy:    -232.1404891
C          0.90299       -0.00091       -0.37727
C         -0.44088       -0.00024        0.32646
C         -1.21540        1.27215       -0.04655
C         -1.21604       -1.27224       -0.04617
O          1.97723        0.00103        0.16728
H          0.83005       -0.00295       -1.50243
H         -0.22288       -0.00006        1.40747
H         -1.41795        1.31490       -1.13060
H         -2.18660        1.29965        0.47304
H         -0.65814        2.18048        0.23150
H         -0.65941       -2.18087        0.23223
H         -2.18727       -1.29892        0.47332
H         -1.41844       -1.31522       -1.13025
