20
ISOBUTYL_ACETATE.gamout	Energy:    -385.8168145
C          3.33683        1.81427        1.50659
O          3.98529        3.08969        1.39871
C          1.91272        1.94733        0.98125
C          5.25524        3.16932        1.84361
C          1.25499        0.56640        0.90050
C          1.08121        2.92166        1.82024
C          5.82181        4.55073        1.62436
O          5.84893        2.23808        2.32843
H          3.35596        1.48577        2.56072
H          3.91127        1.07148        0.92845
H          1.98953        2.35386       -0.04436
H          1.18246        0.09728        1.89707
H          0.23364        0.64270        0.49562
H          1.82289       -0.11681        0.24854
H          0.08621        3.07420        1.37377
H          0.93464        2.53698        2.84484
H          1.57551        3.90150        1.89342
H          6.68952        4.69948        2.27952
H          6.15205        4.64433        0.57628
H          5.06078        5.32286        1.80402
