12
ISOBUTYRONITRILE.gamout	Energy:    -211.0861316
C          2.07275        2.42096        0.56359
C          2.15672        1.15563        1.30989
C          0.90468        0.95753        2.18195
C          3.45748        1.09309        2.12906
N          1.99975        3.42512       -0.01061
H          2.18382        0.35502        0.54817
H          0.95573       -0.01726        2.69077
H         -0.01394        0.98567        1.57766
H          0.83457        1.74433        2.94958
H          4.34231        1.21595        1.48740
H          3.52980        0.11957        2.63753
H          3.47732        1.88405        2.89553
