21
ISOBUTYL_ACRYLATE.gamout	Energy:    -423.8475782
O          4.42089        1.76293        1.94656
C          3.27690        1.08977        2.17512
C          2.13924        1.71719        1.45073
O          3.20711        0.10876        2.87884
C          5.60104        1.26548        2.59068
C          0.90792        1.20487        1.53939
C          6.78552        2.13317        2.18709
C          7.03593        2.08566        0.67759
C          8.02566        1.70983        2.97970
H          2.36412        2.60483        0.85392
H          5.44272        1.27899        3.68165
H          5.75273        0.21098        2.30045
H          0.06167        1.65331        1.01424
H          0.72997        0.31430        2.14935
H          6.53285        3.17326        2.46481
H          6.14107        2.39422        0.11761
H          7.30403        1.06490        0.35340
H          7.86356        2.75427        0.39477
H          8.30741        0.66733        2.75159
H          8.88807        2.34752        2.73103
H          7.85840        1.78156        4.06635
