30
ISOBUTYLCYCLOHEXANE.gamout	Energy:    -392.5499873
C          5.81095        1.88922        1.97859
C          4.48034        1.47791        2.64150
C          3.31345        2.47773        2.55293
C          6.41374        3.14947        2.60895
C          6.81570        0.73187        2.03339
C          2.07372        1.97977        3.31400
C          2.92368        2.81271        1.09111
C          0.98373        3.06718        3.41856
C          1.45520        3.26344        0.94062
C          0.97111        4.00033        2.18954
H          5.61316        2.10433        0.91173
H          4.15007        0.52091        2.19529
H          4.67894        1.26180        3.70859
H          3.63365        3.41444        3.04638
H          7.37190        3.41270        2.13182
H          5.75029        4.02305        2.51282
H          6.61101        2.99780        3.68513
H          7.76187        1.00055        1.53610
H          7.05421        0.46169        3.07748
H          6.42273       -0.17193        1.53983
H          1.67420        1.09131        2.79116
H          2.35776        1.63489        4.32160
H          3.59391        3.60076        0.70881
H          3.09643        1.92850        0.45249
H         -0.00012        2.58193        3.53392
H          1.13670        3.66781        4.33109
H          1.34345        3.89654        0.04583
H          0.80716        2.38417        0.77305
H         -0.03897        4.41060        2.03261
H          1.62931        4.86966        2.36885
