27
ISOBUTYLCYCLOPENTANE.gamout	Energy:    -353.2878838
C          4.62590        1.99716        3.61450
C          3.37839        2.66625        2.99442
C          2.98506        2.23703        1.56338
C          4.52522        0.47288        3.73854
C          5.91800        2.40086        2.89440
C          2.25788        3.35029        0.78610
C          1.93080        1.10989        1.53065
C          0.80863        3.30475        1.30252
C          0.55962        1.81833        1.67528
H          4.69303        2.39918        4.64272
H          3.56064        3.75522        3.00132
H          2.52372        2.50670        3.67598
H          3.89403        1.93483        1.01837
H          3.62413        0.16657        4.29431
H          5.39828        0.06925        4.27648
H          4.49350       -0.01786        2.75133
H          6.02188        3.49681        2.84083
H          5.95520        2.01279        1.86228
H          6.80311        2.00646        3.41968
H          2.72824        4.33849        0.90684
H          2.28005        3.11007       -0.29104
H          1.98679        0.59612        0.55681
H          2.09518        0.34574        2.30286
H          0.09215        3.67989        0.55620
H          0.69992        3.94725        2.19198
H          0.17113        1.73384        2.70274
H         -0.19459        1.35081        1.02340
