12
ISOBUTENE.gamout	Energy:    -156.9970433
C          0.96104        0.98745        1.38187
C          2.10002        1.88714        0.97603
C          3.47509        1.42662        1.38619
C          1.90261        3.02377        0.29437
H          1.07292       -0.01845        0.93856
H          0.93864        0.84575        2.47749
H         -0.01289        1.39261        1.06951
H          3.54688        1.32569        2.48422
H          3.70290        0.43033        0.96586
H          4.25764        2.12495        1.05465
H          2.73837        3.66768        0.00557
H          0.89917        3.34770        0.00344
