16
ISOBUTYLAMINE.gamout	Energy:    -213.4926314
C          2.02633        2.75902        1.65944
N          0.76525        2.05513        1.44680
C          3.22111        1.98153        1.08634
C          3.37451        0.61164        1.75147
C          4.50543        2.80880        1.19233
H          2.04375        3.78901        1.23913
H          2.17364        2.87438        2.74952
H          0.00090        2.53533        1.92116
H          0.52628        2.05419        0.45369
H          3.01280        1.81652        0.00982
H          4.16602        0.01703        1.26716
H          3.64491        0.72436        2.81649
H          2.43082        0.04950        1.70464
H          4.75100        3.02112        2.24771
H          5.36408        2.27420        0.75493
H          4.41199        3.77553        0.67091
