26
ISOBUTYL_ISOBUTYRATE.gamout	Energy:    -464.3291729
O          2.75749        1.14819        0.03219
C          3.93155        0.57323       -0.29977
C          5.11553        1.45228        0.06989
O          4.00668       -0.51044       -0.82629
C          1.56642        0.40314       -0.25678
C          5.09167        2.76965       -0.71808
C          5.16853        1.69886        1.58364
C          0.35441        1.20933        0.18919
C          0.23561        2.53139       -0.57209
C         -0.90895        0.35604        0.03704
H          5.99780        0.86814       -0.23369
H          1.52770        0.18469       -1.33845
H          1.61949       -0.56637        0.26508
H          5.99339        3.36130       -0.49571
H          5.06618        2.58988       -1.80420
H          4.21107        3.37326       -0.44922
H          6.06802        2.27812        1.84384
H          5.20414        0.75223        2.14528
H          4.28537        2.26335        1.92011
H          0.49208        1.43597        1.26281
H         -0.61870        3.12088       -0.20526
H          1.14403        3.14080       -0.45815
H          0.08137        2.35235       -1.65051
H         -1.79850        0.90163        0.38793
H         -0.83855       -0.57825        0.61655
H         -1.08170        0.08411       -1.01866
