17
ISOBUTYL_FORMATE.gamout	Energy:    -346.5426106
C         -0.09078        0.90173        0.39902
C          1.07732        1.69927       -0.18880
C          0.65378        3.15446       -0.38207
C          2.33771        1.58270        0.67086
O          1.66191        3.89809       -1.06730
C          2.16972        5.00330       -0.49601
O          3.00556        5.68204       -1.01241
H          0.17213       -0.16232        0.50212
H         -0.36480        1.27298        1.40196
H         -0.98758        0.96353       -0.23841
H          1.30457        1.29794       -1.19321
H         -0.26451        3.20756       -0.98949
H          0.44183        3.62783        0.59611
H          3.17914        2.13634        0.22815
H          2.64719        0.53102        0.77096
H          2.16445        1.97715        1.68784
H          1.72265        5.21130        0.50864
