15
ISOPROPENYL_ACETATE.gamout	Energy:    -345.3359875
C          0.65931        1.11191        2.43920
C          1.96369        1.86705        2.42881
O          3.00305        1.01099        2.22814
O          2.09345        3.05305        2.57813
C          4.31009        1.50604        2.13519
C          5.19056        1.11928        3.05938
C          4.59648        2.34015        0.92462
H         -0.16455        1.80858        2.63406
H          0.50863        0.61124        1.46996
H          0.68325        0.32687        3.21052
H          4.88145        0.49437        3.89904
H          6.23674        1.41997        2.98648
H          4.01971        3.27759        0.95537
H          5.66611        2.58478        0.86860
H          4.31046        1.79739        0.00743
