17
ISOPROPYL_ACETATE.gamout	Energy:    -346.5643669
O          3.20103        1.00538        1.76964
C          1.99814        1.74978        2.08416
C          4.39032        1.60781        1.96279
C          0.96542        0.72378        2.51938
C          1.56896        2.56849        0.87365
C          5.52846        0.66468        1.65493
O          4.51731        2.74341        2.35171
H          2.23926        2.43088        2.91528
H          1.32821        0.15047        3.38568
H          0.75105        0.01512        1.70301
H          0.02501        1.22220        2.80202
H          1.38821        1.91393        0.00540
H          0.63893        3.11607        1.09479
H          2.34197        3.30398        0.60774
H          5.30599        0.05435        0.76817
H          5.66742       -0.02389        2.50496
H          6.45225        1.23860        1.51020
