12
ISOPROPANOL.gamout	Energy:    -194.0898986
C          0.61832        1.20378        1.99935
C          2.07430        1.65774        2.10555
C          2.94339        1.09713        0.98817
O          2.17910        3.07292        2.03141
H          0.17528        1.56096        1.05503
H          0.53388        0.10542        2.03327
H          0.01674        1.60679        2.83257
H          2.48277        1.29802        3.07540
H          2.95152       -0.00380        1.00509
H          2.56661        1.43377        0.00839
H          3.97691        1.45920        1.09614
H          1.59277        3.45373        2.69809
