24
ISOPROPYL-TERT-BUTYL_ETHER.gamout	Energy:    -351.1109377
O          2.92098        2.47242        1.31194
C          1.81318        3.15020        1.91498
C          3.98584        1.98632        2.12219
C          2.26417        4.43960        2.61819
C          1.06158        2.23323        2.89174
C          0.91389        3.49302        0.72757
C          4.05652        0.46862        1.97731
C          5.27907        2.66772        1.68461
H          3.80138        2.23058        3.18453
H          2.80337        5.09007        1.91279
H          1.39526        4.99582        3.00444
H          2.92686        4.23269        3.47275
H          0.16185        2.73434        3.28311
H          0.74724        1.31019        2.38141
H          1.68411        1.95601        3.75632
H          0.61546        2.57277        0.20383
H          1.45750        4.12922        0.01321
H          0.00601        4.02486        1.05290
H          4.89433        0.04910        2.55776
H          4.19747        0.19703        0.91846
H          3.12510       -0.00094        2.32676
H          6.14239        2.29792        2.26133
H          5.46556        2.47214        0.61599
H          5.21158        3.75715        1.82258
