17
ISOPENTANE.gamout	Energy:    -197.4746206
C          3.33450        1.93574        2.59346
C          2.15603        1.06877        2.11373
C          2.37442        0.60319        0.66934
C          0.80826        1.78749        2.25209
C          3.35649        2.23243        4.09471
H          4.27608        1.42880        2.31662
H          3.32883        2.88648        2.02642
H          2.12486        0.16787        2.75759
H          3.30145        0.01523        0.57115
H          2.45267        1.46517       -0.01670
H          1.53958       -0.02484        0.31827
H          0.78369        2.69961        1.62996
H         -0.02216        1.14009        1.92655
H          0.60293        2.08659        3.29154
H          2.47329        2.80610        4.41944
H          3.38199        1.30067        4.68574
H          4.24631        2.82139        4.36875
