27
ISOPROPYLCYCLOHEXANE.gamout	Energy:    -353.3017092
C          1.78283       -0.00008        0.30804
C          2.56451       -1.24994       -0.12551
C          2.56357        1.24985       -0.12628
C          0.31489       -0.00013       -0.19829
C         -0.46786       -1.25456        0.23673
C         -1.92231       -1.25566       -0.25008
C         -2.67237        0.00032        0.19409
C         -1.92240        1.25614       -0.24998
C         -0.46814        1.25408        0.23718
H          1.74273        0.00015        1.41577
H          3.59939       -1.20861        0.25033
H          2.12198       -2.18303        0.25249
H          2.61640       -1.32496       -1.22634
H          2.61545        1.32404       -1.22715
H          2.12056        2.18285        0.25117
H          3.59841        1.20935        0.24959
H          0.35387        0.00003       -1.30765
H          0.02954       -2.16510       -0.12834
H         -0.45363       -1.31469        1.34232
H         -1.93606       -1.31437       -1.35463
H         -2.43559       -2.16085        0.11339
H         -3.69891        0.00009       -0.20880
H         -2.76911        0.00034        1.29617
H         -1.93618        1.31532       -1.35451
H         -2.43529        2.16118        0.11410
H         -0.45429        1.31350        1.34281
H          0.02920        2.16455       -0.12728
