16
ISOPROPYL_METHYL_KETONE.gamout	Energy:    -271.4074216
C          0.99218       -0.06578        0.02701
C          0.23114       -0.44247        1.29821
C         -0.62239       -1.70081        1.04501
C          1.17433       -0.62599        2.48429
C          0.17978        0.42646       -1.16450
O          2.19823       -0.15436       -0.04797
H         -0.46470        0.39459        1.50193
H          0.02067       -2.56677        0.81571
H         -1.32537       -1.56836        0.20827
H         -1.21285       -1.94752        1.94101
H          1.87603       -1.45416        2.30043
H          0.60589       -0.84725        3.40108
H          1.77749        0.27713        2.65885
H         -0.89354        0.53938       -0.95628
H          0.31115       -0.27401       -2.00527
H          0.59080        1.39477       -1.49102
