20
ISOPENTYL_FORMATE.gamout	Energy:    -385.8037827
C          5.54266        2.32823       11.09668
O          5.02257        2.71713       12.10763
O          5.01371        2.38406        9.87192
H          6.55007        1.86085       11.03870
C          3.70014        2.96728        9.75582
C          3.30203        2.90756        8.29156
H          3.73474        3.99521       10.14959
H          3.00089        2.40025       10.39371
C          1.88401        3.41990        7.98389
H          3.38175        1.85743        7.96262
H          4.04142        3.47261        7.69504
C          1.68793        4.89828        8.34006
H          1.85020        5.10016        9.41028
H          0.66450        5.22492        8.09675
H          2.38452        5.53760        7.76953
C          1.54281        3.16864        6.51063
H          1.17718        2.82632        8.59577
H          1.63400        2.10163        6.25142
H          2.21951        3.73256        5.84501
H          0.51275        3.48375        6.27963
