29
ISOPENTYL_BUTYRATE.gamout	Energy:    -503.5830577
C         -3.56394       -0.64106       -0.36934
C         -2.38800        0.33465       -0.36134
H         -3.21744       -1.68727       -0.31346
H         -4.16194       -0.53897       -1.28871
H         -4.23994       -0.47356        0.48676
C         -1.53763        0.23437        0.90543
H         -2.75777        1.36972       -0.46705
H         -1.73697        0.15982       -1.23310
C         -0.26033        1.04794        0.84121
H         -1.22820       -0.81508        1.07382
H         -2.09770        0.52568        1.80840
C          1.45294        2.02264        2.19603
C          1.23183        3.53279        2.23041
C          2.45856        4.37501        2.63911
H          0.40448        3.73836        2.93119
H          0.89259        3.85560        1.23214
C          2.88165        4.14912        4.09648
H          3.65952        4.87080        4.39338
H          3.30108        3.14111        4.25576
H          2.03188        4.27083        4.78799
C          3.64524        4.19957        1.68297
H          2.13046        5.42747        2.55874
H          4.45555        4.90390        1.93118
H          3.35093        4.38083        0.63668
H          4.07195        3.18345        1.73878
O          0.20293        1.31683        2.07796
H          1.88747        1.65617        3.13727
H          2.10434        1.73061        1.35972
O          0.29633        1.38975       -0.17472
