16
ISOPHTHALATE-2.gamout	Energy:    -607.3064860
O         -2.91391        2.12125        0.00021
O          2.92216        2.12521        0.00034
O         -4.13032        0.13728       -0.00034
O          4.12618        0.13407       -0.00019
C         -0.79383       -0.56172       -0.00035
C          0.79023       -0.56018       -0.00038
C         -0.00283        0.53676       -0.00095
C         -1.17104       -1.89459        0.00020
C          1.16993       -1.89233        0.00017
C          0.00022       -2.68950        0.00053
C         -3.51512        1.12445       -0.00006
C          3.51718        1.12471        0.00010
H         -0.00424        1.63041       -0.00138
H         -2.19600       -2.26405        0.00034
H          2.19556       -2.25982        0.00027
H          0.00130       -3.78550        0.00098
