16
ISOPHTHALOYL_CHLORIDE.gamout	Energy:   -1377.1444259
Cl         6.53145        4.57357       -1.30361
C          7.26996        2.96917       -0.91124
O          8.45336        2.85649       -0.87988
C          6.29011        1.87596       -0.64876
C          6.82365        0.61806       -0.33955
C          4.89776        2.04683       -0.69661
C          5.97464       -0.46515       -0.07854
C          4.05378        0.96771       -0.43717
C          6.63169       -1.76511        0.24203
C          4.58370       -0.28484       -0.12894
Cl         5.49283       -3.13164        0.57694
O          7.80523       -1.95091        0.28991
H          7.90463        0.48152       -0.30178
H          4.48617        3.02659       -0.93738
H          2.97158        1.10394       -0.47539
H          3.92645       -1.12979        0.07444
