17
ISOQUINOLINE.gamout	Energy:    -401.3890512
C         -1.93133        2.42500       -1.64154
C         -0.82120        1.56635       -1.85147
C         -2.91063        2.07929       -0.73414
C         -0.70722        0.38109       -1.15505
C         -1.70162       -0.00024       -0.21337
C         -2.81804        0.86553       -0.00341
C         -3.79840        0.45715        0.94729
C         -1.66023       -1.20026        0.54448
C         -2.67685       -1.47714        1.43409
N         -3.74110       -0.65867        1.63893
H         -2.00612        3.35951       -2.20153
H         -0.05088        1.84949       -2.57260
H         -3.76979        2.73290       -0.56436
H          0.14876       -0.27828       -1.31860
H         -4.66439        1.10936        1.12335
H         -0.82756       -1.89666        0.42157
H         -2.65864       -2.39823        2.02586
