31
KAEMPFEROL.gamout	Energy:   -1027.6667200
O         -0.10251       -0.77382        0.12749
O          0.82957        2.71633       -0.39995
O         -4.16860        1.70398       -0.30043
O         -1.86779        2.84711       -0.49975
O         -4.22048       -2.98552        0.56784
O          6.18172       -0.93100        0.10211
C         -2.10046        0.52566       -0.09966
C         -1.45586       -0.70402        0.12782
C          0.67478        0.32774       -0.08418
C         -1.33644        1.73908       -0.31022
C          0.12013        1.57046       -0.26472
C          2.11037        0.00433       -0.03862
C         -3.52738        0.55823       -0.09504
C         -2.15880       -1.88304        0.35124
C         -3.55858       -1.82788        0.34936
C         -4.24094       -0.62042        0.12927
C          2.56919       -1.03949        0.78589
C          3.06304        0.69008       -0.82152
C          3.91951       -1.36805        0.84537
C          4.41424        0.36938       -0.76348
C          4.85658       -0.66031        0.07781
H         -1.64113       -2.82541        0.51874
H         -5.33192       -0.57543        0.12837
H          1.85033       -1.59989        1.38422
H          2.73403        1.46095       -1.52094
H          4.25400       -2.18069        1.49692
H          5.14453        0.89697       -1.37843
H          1.74460        2.56652       -0.12265
H         -3.45990        2.40133       -0.42831
H         -5.17260       -2.82172        0.53927
H          6.35640       -1.66178        0.71026
