19
L-ASCORBATE-1.gamout	Energy:    -683.3884590
O          0.09911       -0.85737        1.11839
O         -1.92362        0.41440       -1.25201
O          0.29491        1.89466       -1.14422
O         -3.95653       -0.74493        0.02881
O          2.82816       -0.00380       -1.06212
O          2.00936       -2.05823        0.77331
C         -0.38774        0.41579        0.68109
C         -1.84319        0.39489        0.16115
C          0.59213        0.91557       -0.40720
C         -2.66514       -0.80910        0.60678
C          1.66262        0.03529       -0.32364
C          1.34440       -1.05644        0.53800
H         -0.34908        1.09945        1.55067
H         -2.34192        1.30145        0.56792
H         -2.12730       -1.73085        0.31417
H         -2.77127       -0.82057        1.70491
H         -1.25662        1.09412       -1.52698
H         -3.78136       -0.42330       -0.87113
H          3.22638       -0.85103       -0.80038
