23
L-PHENYLALANINE.gamout	Energy:    -554.0685126
C          6.33909        1.81730       -0.63778
C          7.36810        2.92352       -0.71093
C          6.67758        0.57691       -0.07664
C          5.02960        1.99920       -1.10930
C          7.19965        4.02039        0.36777
C          8.53048        4.77002        0.55084
N          6.03517        4.84544        0.10949
O          8.37674        6.11230        0.57259
O          9.60801        4.24438        0.68626
C          4.08998        0.97033       -1.02427
C          4.44031       -0.26150       -0.46480
C          5.73909       -0.45459        0.01007
H          8.37696        2.50110       -0.60405
H          7.33047        3.41471       -1.70041
H          7.69496        0.41510        0.29142
H          4.74410        2.96411       -1.53189
H          7.05010        3.50485        1.33447
H          5.85939        5.47222        0.89270
H          6.20272        5.44501       -0.69966
H          9.26473        6.48462        0.71472
H          3.07560        1.13080       -1.39905
H          3.70457       -1.06735       -0.40152
H          6.02670       -1.41425        0.44673
