11
LAC-1.gamout	Energy:    -342.6251983
C         -0.99951        1.67376        0.31451
C          0.01341        2.57990       -0.48604
C          0.15046        3.95590        0.16351
H          0.80184        4.62646       -0.42696
H          0.59795        3.84792        1.16750
H         -0.84696        4.41053        0.27045
O          1.25129        1.90996       -0.57419
H         -0.42373        2.72320       -1.50146
H          0.99015        1.07328       -0.10066
O         -0.50023        0.56272        0.65255
O         -2.13737        2.12847        0.52068
