12
LACTIC_ACID.gamout	Energy:    -343.1827808
C         -0.02436        0.59795       -0.22105
C          1.42117        0.09263       -0.18417
C          1.85656       -0.25364        1.23405
O          2.30498        1.03390       -0.72666
O          1.10101       -1.19679        1.81092
O          2.79795        0.27358        1.78077
H         -0.29426        0.83118       -1.26084
H         -0.72175       -0.15795        0.16925
H         -0.11968        1.52220        0.37079
H          1.47320       -0.85605       -0.75893
H          2.94759        1.24069       -0.02671
H          1.45691       -1.34685        2.70444
