10
LACTONITRILE.gamout	Energy:    -246.9500422
C         33.97314       29.87216        0.01200
C         32.60410       29.29765        0.05831
C         31.82774       29.64440       -1.21580
O         32.64193       27.91347        0.32232
N         35.05396       30.28321       -0.06029
H         32.09451       29.74667        0.92711
H         30.81459       29.22338       -1.14433
H         31.75396       30.73373       -1.35547
H         32.32628       29.22089       -2.10291
H         33.09335       27.47197       -0.41153
