45
LACTOSE.gamout	Energy:   -1296.2962934
O          1.45159       -0.62432        0.59822
O          0.43899        0.39560       -1.98133
O          0.12969       -1.44490       -4.02036
O          1.77984       -3.41857       -3.12373
O          1.20586       -2.72473       -0.23829
O          0.53825       -6.01059       -1.48750
C          0.75540       -1.39762       -0.33255
C          0.87649       -0.92614       -1.78714
C          0.02616       -1.83314       -2.66583
C          0.50338       -3.27882       -2.53854
C          0.54146       -3.67536       -1.05804
C          1.25669       -4.99512       -0.81701
O          6.60526        0.62949        1.85574
O          5.06159        2.42948        0.30085
O          2.86168        1.34266       -0.98011
O          4.86231       -0.84788        1.89465
O          3.98433       -3.33764        1.07534
C          5.22417        0.50807        1.79451
C          4.77625        1.05594        0.44692
C          3.27444        0.89161        0.30117
C          2.86615       -0.56214        0.51174
C          3.45452       -1.08872        1.83644
C          3.29935       -2.58912        2.04958
H          1.14836        0.96556       -1.63005
H          0.12868       -0.47398       -4.01150
H          1.73119       -2.92201       -3.95578
H          1.12668       -6.76210       -1.62232
H         -0.30552       -1.31311       -0.01920
H          1.92682       -1.05558       -2.10534
H         -1.02507       -1.76733       -2.31724
H         -0.22668       -3.94794       -3.02986
H         -0.51328       -3.77151       -0.72694
H          2.29066       -4.88780       -1.18509
H          1.30169       -5.16653        0.27521
H          6.89963        0.36796        2.73869
H          6.01747        2.53649        0.40307
H          3.29602        2.19811       -1.12504
H          4.90033       -3.02373        1.07761
H          4.72754        1.08246        2.60978
H          5.28737        0.45006       -0.32725
H          2.78646        1.50044        1.08856
H          3.25190       -1.18555       -0.30939
H          2.94881       -0.55263        2.66588
H          3.66362       -2.81407        3.07121
H          2.23803       -2.86010        1.99438
