25
LEVODOPA.gamout	Energy:    -704.3363120
O          2.25038       -2.13848        0.46334
O         -2.92027       -1.36123       -0.10176
O          3.95450       -0.32282       -0.49387
O         -2.05277       -0.89865       -2.11888
N         -3.79100        1.30018       -0.24922
C         -1.43154        1.10793        0.65490
C         -2.41074        0.91945       -0.53770
C          0.01409        0.77427        0.36657
C          0.48820       -0.53287        0.56271
C          0.89508        1.74053       -0.13312
C          1.80555       -0.87430        0.26544
C         -2.42342       -0.51873       -1.03993
C          2.22234        1.40957       -0.43321
C          2.67923        0.10987       -0.23879
H         -1.80064        0.50000        1.49731
H         -1.51468        2.16390        0.96119
H         -2.05276        1.51644       -1.38996
H         -0.16719       -1.31239        0.95642
H          0.55161        2.76655       -0.28742
H          2.90716        2.17238       -0.81696
H         -3.83447        2.27728        0.04167
H         -4.14732        0.74308        0.52880
H          3.18091       -2.16699        0.19149
H         -2.92185       -2.24961       -0.49813
H          4.48384        0.39149       -0.87002
