33
LEVOSIMENDAN.gamout	Energy:    -943.1376667
O         -6.76888       -0.84469       -0.36297
N         -3.27193       -1.25854        0.01155
N         -4.61765       -1.44760        0.02765
N          2.87009        0.52413        0.00408
N          3.69003       -0.47999       -0.05398
N          6.58013       -2.32569       -0.16004
N          5.88099        2.14764        0.08730
C         -3.74345        1.14812        0.07087
C         -5.03482        0.82341       -0.68859
C         -2.81131       -0.05127        0.00320
C         -4.01538        1.53735        1.53618
C         -1.33846        0.10731       -0.00440
C         -5.59709       -0.53337       -0.32255
C         -0.72210        1.36900        0.05272
C         -0.49919       -1.02758       -0.06171
C          0.66589        1.49643        0.05608
C          0.88310       -0.91508       -0.06048
C          1.47575        0.35712       -0.00077
C          4.98696       -0.28469       -0.04608
C          5.85450       -1.42070       -0.10967
C          5.54951        1.03480        0.02485
H         -3.27139        2.00327       -0.43128
H         -4.84501        0.80330       -1.77700
H         -5.81520        1.57550       -0.51281
H         -4.66775        2.42264        1.57847
H         -4.51309        0.72258        2.08604
H         -3.07968        1.77353        2.06392
H         -4.91254       -2.41487        0.12828
H         -1.32012        2.27921        0.09919
H         -0.96617       -2.01184       -0.10763
H          1.11609        2.49085        0.10381
H          1.52006       -1.79776       -0.10658
H          3.23422        1.48204        0.05897
