16
LEVULINIC_ACID.gamout	Energy:    -420.5008626
O         -0.21753        3.18503        0.26529
O         -0.38068       -1.45034        1.31339
O         -1.39862       -1.78998       -0.65410
C          0.68796        0.97316        0.13683
C         -0.74145        0.46158       -0.05034
C          0.77406        2.49485        0.18689
C          2.16761        3.09314        0.16311
C         -0.88704       -1.03076        0.12985
H          1.35901        0.59846       -0.65593
H          1.11090        0.59251        1.08387
H         -1.12955        0.71289       -1.04666
H         -1.39247        0.96357        0.68481
H          2.75543        2.73048        1.02349
H          2.09856        4.18778        0.20072
H          2.70753        2.78403       -0.74731
H         -0.52719       -2.41125        1.35095
