39
LIDOCAINE.gamout	Energy:    -730.4915124
O         -0.49702        0.70928       -3.37456
N          2.60257        0.24371       -1.51851
N         -0.09299        0.33901       -1.13924
C          1.75717        0.22787       -2.70501
C          3.00931        1.60962       -1.16534
C          3.73780       -0.67884       -1.61835
C         -1.41366        0.29833       -0.61711
C          0.26216        0.47370       -2.45314
C         -1.81311       -0.87071        0.06465
C         -2.28471        1.39958       -0.75509
C          3.40833        1.78545        0.29717
C          3.35847       -2.14635       -1.44103
C         -3.10415       -0.92921        0.59965
C         -3.57448        1.29010       -0.21877
C         -0.87373       -2.04164        0.21027
C         -1.85040        2.67230       -1.43054
C         -3.98521        0.14030        0.45111
H          2.07522        0.95375       -3.47914
H          1.80768       -0.76355       -3.18142
H          3.83454        1.95324       -1.82893
H          2.15635        2.27391       -1.37534
H          4.27264       -0.53912       -2.58460
H          4.46089       -0.41119       -0.83388
H          0.68327        0.02131       -0.55857
H          2.57304        1.52837        0.96796
H          4.27096        1.16010        0.57737
H          3.69134        2.83307        0.48760
H          2.91235       -2.32178       -0.44906
H          2.63755       -2.48979       -2.20054
H          4.25426       -2.78093       -1.53299
H         -3.42254       -1.83348        1.12462
H         -4.26024        2.13533       -0.32034
H         -0.43444       -2.33223       -0.75779
H         -0.03181       -1.82018        0.89114
H         -1.40044       -2.91431        0.62150
H         -1.74472        2.52179       -2.51628
H         -2.57357        3.47843       -1.24659
H         -0.86506        2.99879       -1.05831
H         -4.99475        0.07869        0.86363
