26
LIMONENE.gamout	Energy:    -390.1170845
C          2.00593        2.96723        2.95636
C          3.36490        3.65344        3.12563
C          4.08380        3.80942        1.77492
C          2.05615        1.75261        2.05607
C          3.11412        1.51933        1.26203
C          0.86168        0.83944        2.10552
C          4.32054        2.41622        1.16056
C          5.35409        4.64786        1.85977
C          5.37145        5.90942        1.03762
C          6.39481        4.29603        2.62721
H          1.60758        2.67378        3.94464
H          1.26434        3.68385        2.54951
H          3.23610        4.63827        3.60113
H          4.00010        3.05923        3.80606
H          3.38249        4.33751        1.10325
H          3.11733        0.61797        0.63882
H          0.73717        0.40610        3.11445
H         -0.07128        1.39074        1.88670
H          0.94231        0.01034        1.38616
H          5.18717        1.93569        1.65343
H          4.61583        2.52416        0.10171
H          6.31979        6.45637        1.14349
H          5.21993        5.68872       -0.03463
H          4.54958        6.58680        1.33337
H          7.29675        4.91248        2.67903
H          6.38685        3.38349        3.23006
