34
LINALYL_ACETATE.gamout	Energy:    -618.8834212
C          1.09447       -0.10187       -0.05867
C          0.70246       -0.83161        1.25296
O          0.55290        1.24136       -0.03216
C          0.40178       -0.75794       -1.23920
C          2.60689       -0.09408       -0.34185
C          1.17140       -2.28742        1.40422
C          0.78385        2.29959        0.77958
C         -0.53992       -0.20813       -2.00716
C          0.65542       -2.92246        2.68176
C          1.86237        2.27207        1.85144
O          0.11560        3.28685        0.61683
C          0.91204       -4.16459        3.13080
C          1.79407       -5.14791        2.40689
C          0.32411       -4.66978        4.42308
H         -0.39669       -0.79091        1.32606
H          1.09146       -0.25671        2.10790
H          0.74104       -1.77830       -1.44994
H          3.20986        0.19665        0.52958
H          2.81914        0.60016       -1.16800
H          2.93969       -1.09536       -0.65257
H          2.27598       -2.32151        1.38727
H          0.84122       -2.88098        0.53287
H         -0.90172        0.80707       -1.83077
H         -0.97468       -0.77059       -2.83754
H         -0.00100       -2.29676        3.29906
H          2.43180        1.34378        1.94228
H          1.37960        2.49654        2.81461
H          2.55512        3.10179        1.64201
H          2.17484       -4.76341        1.45101
H          1.24903       -6.08695        2.20091
H          2.66325       -5.42719        3.03022
H         -0.32286       -3.92122        4.90339
H          1.11749       -4.94688        5.14147
H         -0.27531       -5.58346        4.25676
