50
LINOLENIC_ACID.gamout	Energy:    -853.2224421
C        139.29397       29.52868        0.13145
C        138.82839       28.70315        1.34614
C        137.76262       27.65203        1.01017
C        140.26850       30.61654        0.49452
C        137.31014       26.82420        2.21968
C        141.55258       30.73951        0.12649
C        136.16713       25.83392        1.94415
C        142.35130       29.82884       -0.77501
C        136.51126       24.68527        0.99040
C        142.83973       30.55648       -2.00403
C        135.36038       23.69764        0.80978
C        144.10526       30.79318       -2.37795
C        135.66559       22.56582       -0.14651
C        145.37997       30.37900       -1.68178
C        145.94446       32.16536        2.21829
C        146.59256       31.25455        1.16603
C        146.25573       31.56587       -1.35832
C        146.75341       31.93020       -0.16775
O        136.69012       22.41171       -0.76391
O        134.62623       21.70867       -0.24579
H        139.71869       28.85496       -0.63066
H        138.40508       29.99310       -0.33839
H        138.43566       29.38822        2.12071
H        139.70644       28.21067        1.80263
H        138.14974       26.98590        0.21847
H        136.88221       28.15767        0.56918
H        139.86636       31.39143        1.16029
H        136.98040       27.51475        3.01634
H        138.17576       26.27796        2.64016
H        142.10387       31.61251        0.49638
H        135.83447       25.41182        2.90937
H        135.29466       26.38990        1.55012
H        143.20608       29.42064       -0.20861
H        141.74028       28.96208       -1.07974
H        136.79764       25.07315       -0.00102
H        137.39913       24.14163        1.35790
H        142.04301       30.95717       -2.64263
H        135.05341       23.24236        1.76860
H        134.45036       24.20056        0.43468
H        144.25279       31.36801       -3.30146
H        145.16748       29.78549       -0.78150
H        145.93943       29.70789       -2.36561
H        145.88803       31.66402        3.19759
H        146.51992       33.09685        2.35264
H        144.92142       32.44811        1.92051
H        146.01041       30.32356        1.07171
H        147.59247       30.94717        1.52929
H        146.49660       32.20525       -2.21731
H        147.35582       32.84814       -0.14366
H        134.89842       21.01896       -0.87539
