51
LINOLEATE-1.gamout	Energy:    -853.8747666
C         -9.19294        1.36719       -0.30481
C         -7.71777        1.93017       -0.17224
C         -6.61841        0.87530       -0.27277
H         -7.65474        2.47141        0.79200
H         -7.58683        2.70713       -0.95046
C         -5.19242        1.42006       -0.13391
H         -6.73214        0.34091       -1.23270
H         -6.80493        0.10335        0.49488
C         -4.09251        0.34217       -0.21822
H         -5.08479        1.95049        0.83130
H         -5.00499        2.18306       -0.91434
C         -2.70616        0.90078       -0.08541
H         -4.18253       -0.17610       -1.19303
H         -4.26430       -0.42522        0.55688
C         -1.84392        0.64455        0.90549
C         -0.46178        1.23959        1.02726
C          0.61813        0.19598        0.90483
H         -0.36547        1.73944        2.01212
H         -0.31784        2.01807        0.25937
C          1.52077        0.12589       -0.07931
C          2.58435       -0.92747       -0.20979
C          4.01027       -0.36369       -0.08884
H          2.48372       -1.43301       -1.19034
H          2.42854       -1.70741        0.55649
C          5.11126       -1.42205       -0.21158
H          4.10179        0.15597        0.88240
H          4.15925        0.41421       -0.86103
C          6.53199       -0.85909       -0.08016
H          5.01256       -1.94323       -1.18270
H          4.95330       -2.19773        0.56147
C          7.63803       -1.91694       -0.18609
H          6.62524       -0.33142        0.88814
H          6.68986       -0.08742       -0.85712
C          9.05872       -1.35352       -0.05940
H          7.54180       -2.44756       -1.15246
H          7.48013       -2.68565        0.59386
C         10.16261       -2.41165       -0.16078
H          9.15464       -0.82094        0.90612
H          9.21859       -0.58652       -0.84080
C         11.57489       -1.83794       -0.03062
H         10.06911       -2.94357       -1.12592
H         10.00300       -3.17847        0.61966
H         11.78249       -1.09657       -0.82107
H         12.33950       -2.62748       -0.10626
H         11.71513       -1.33163        0.93996
H         -2.40111        1.61618       -0.86474
H         -2.13232       -0.06769        1.69171
H          0.61843       -0.58721        1.67730
H          1.50949        0.90245       -0.85821
O        -10.08623        2.23421       -0.21678
O         -9.28521        0.13070       -0.48040
