31
LUTEOLIN.gamout	Energy:   -1027.6477241
C         -0.56736        1.15376        0.07206
C         -0.12679        2.49028        0.11575
C         -1.91728        0.79226        0.03714
O          0.30435        0.10929        0.06121
C         -1.13662        3.49482        0.12292
C          1.33116        2.77219        0.15133
C         -2.48731        3.14706        0.08832
O         -0.75871        4.78442        0.16401
C         -2.87936        1.80194        0.04560
O         -4.20727        1.54496        0.01386
C          2.16205        1.56340        0.13504
O          1.82554        3.89004        0.19119
C          1.65026        0.30763        0.09193
C          2.39489       -0.96277        0.07277
C          3.77889       -3.43489        0.03526
C          2.36603       -3.41119        0.00908
C          4.47027       -2.22187        0.07947
O          4.38416       -4.64415        0.01565
C          1.70019       -2.18897        0.02794
O          1.73019       -4.60846       -0.03369
C          3.79727       -1.00209        0.09823
H         -2.18650       -0.26429        0.00440
H         -3.25998        3.91879        0.09405
H         -1.54813        5.34282        0.16362
H         -4.35229        0.58991       -0.01364
H          3.23756        1.72985        0.16007
H          5.56395       -2.23483        0.09982
H          5.34247       -4.52145        0.03698
H          0.60904       -2.18805        0.00735
H          0.77578       -4.46013       -0.04782
H          4.38307       -0.08387        0.13316
