98
LUTEIN.gamout	Energy:   -1705.9383708
O         14.33591       -1.95826       -0.25282
O        -14.86328        1.17315       -0.46414
C         11.85350       -0.17979       -1.39377
C         11.10815        0.37234       -0.13005
C         12.14694       -1.67604       -1.18027
C         12.94385       -2.00636        0.08319
C         11.83588       -0.00222        1.16182
C        -11.20165        0.70839       -1.45951
C         10.99469       -0.00543       -2.65569
C         13.15786        0.61017       -1.59422
C        -12.57631        1.39011       -1.30807
C         12.62650       -1.08536        1.23220
C        -13.60403        0.53085       -0.58706
C        -10.79151       -0.01770       -0.15478
C          9.65778       -0.05449       -0.01587
C        -13.10295        0.24957        0.81479
C        -11.66025       -0.19094        0.88108
C        -10.18983        1.81107       -1.84215
C        -11.24951       -0.31233       -2.61615
C         11.60692        0.89557        2.34925
C          8.59886        0.78763        0.02119
C         -9.40234       -0.50681       -0.12036
C        -11.30039       -0.77453        2.22589
C          7.18826        0.42939        0.13586
C         -8.96220       -1.71089        0.33145
C          6.82477       -1.02649        0.24691
C         -7.57758       -2.18082        0.38986
C          6.25810        1.43951        0.13248
C         -7.36585       -3.67870        0.45480
C         -6.51487       -1.31582        0.38773
C          4.82675        1.33867        0.21301
C         -5.11936       -1.66139        0.38981
C          3.99806        2.42779        0.20357
C          2.54694        2.47504        0.26085
C         -4.11586       -0.72736        0.39045
C         -2.69056       -0.96246        0.37516
C          1.91653        3.85187        0.27665
C          1.76081        1.34613        0.29010
C         -1.84477        0.12809        0.36897
C         -2.19068       -2.38254        0.36189
C          0.33205        1.30879        0.33091
C         -0.41348        0.15342        0.34328
H         11.11560        1.47408       -0.20774
H         12.71324       -2.07631       -2.03494
H         11.19406       -2.23014       -1.15138
H         12.69032       -3.04315        0.38743
H         10.06117       -0.58524       -2.60607
H         10.72075        1.05161       -2.80829
H         11.54946       -0.33651       -3.54867
H         13.82929        0.52214       -0.73189
H         13.70471        0.23034       -2.47116
H         12.94114        1.67676       -1.76646
H        -12.46909        2.32992       -0.73979
H        -12.94828        1.66697       -2.30964
H         13.11454       -1.32131        2.18634
H        -13.71611       -0.43331       -1.12406
H          9.48396       -1.13320        0.07023
H        -13.74751       -0.50687        1.29523
H        -13.24085        1.17009        1.41488
H         -9.21981        1.40359       -2.16087
H        -10.01654        2.50899       -1.00798
H        -10.58490        2.39400       -2.68988
H        -12.03109       -1.06981       -2.45661
H        -10.29046       -0.84155       -2.71133
H        -11.45201        0.19612       -3.57273
H         10.53421        0.97207        2.59804
H         11.95379        1.92137        2.13117
H         12.14064        0.53705        3.24188
H         14.84794       -2.03857        0.56286
H         -8.65677        0.16201       -0.56166
H          8.79173        1.86580       -0.05115
H        -11.71106       -1.79413        2.34118
H        -10.21915       -0.82430        2.40124
H        -11.75914       -0.16899        3.02718
H        -15.20571        1.34433       -1.35095
H         -9.71092       -2.44214        0.65452
H          5.74423       -1.18539        0.34522
H          7.16476       -1.59331       -0.63747
H          7.31136       -1.48949        1.12295
H          6.65231        2.46002        0.05272
H         -6.87356       -4.06028       -0.45708
H         -6.73382       -3.97086        1.30935
H         -8.32083       -4.21425        0.55181
H         -6.73548       -0.24336        0.39681
H          4.38821        0.33863        0.28134
H         -4.85472       -2.72328        0.38192
H          4.48115        3.41005        0.14379
H         -4.41379        0.32822        0.39678
H          1.29503        4.00966        1.17402
H          1.26632        4.01785       -0.59906
H          2.68350        4.63870        0.26852
H          2.25951        0.37163        0.27073
H         -2.32874        1.11190        0.38038
H         -2.56637       -2.92946       -0.52022
H         -1.09598       -2.43918        0.34489
H         -2.53895       -2.93584        1.25133
H         -0.21061        2.26130        0.34735
H          0.12859       -0.79902        0.32708
