23
LYSINATE-1.gamout	Energy:    -495.8046608
O         -2.91950        0.53896       -1.27640
O         -1.56963        1.75790        0.07144
N         -2.56612       -1.75311        0.09611
N          4.66900        0.20301       -0.25415
C          0.88805       -0.09715        0.42998
C         -0.22316       -1.02058       -0.07734
C          2.26665       -0.39501       -0.16554
C         -1.64477       -0.63481        0.37632
C          3.36609        0.53990        0.33350
C         -2.09957        0.70033       -0.33885
H          0.94717       -0.17878        1.53330
H          0.57960        0.94114        0.22275
H         -0.03551       -2.06364        0.24098
H         -0.21624       -1.03580       -1.18494
H          2.21040       -0.31237       -1.26918
H          2.57106       -1.43784        0.04294
H         -1.61631       -0.44378        1.46589
H          3.45464        0.44559        1.43179
H          3.04940        1.58815        0.14227
H         -2.95704       -1.46454       -0.81614
H         -3.37522       -1.62078        0.70960
H          5.36495        0.89537        0.02754
H          4.60426        0.28775       -1.27126
