14
M-CHLORONITROBENZENE.gamout	Energy:    -895.5957894
C          6.31264        1.88905       -0.67865
C          6.86155        0.64997       -0.34777
C          4.92545        2.07061       -0.72886
Cl         7.37297        3.22777       -1.03412
C          4.07758        0.99670       -0.44417
C          4.60094       -0.25336       -0.11055
C          5.98671       -0.39893       -0.06959
N          6.55932       -1.71945        0.28323
O          5.77609       -2.62325        0.52164
O          7.77445       -1.81622        0.31203
H          7.93718        0.49041       -0.30360
H          4.52084        3.04928       -0.99000
H          2.99520        1.13974       -0.48381
H          3.96594       -1.10840        0.11616
