14
M-CHLOROANILINE.gamout	Energy:    -746.6226532
C          6.33070        1.85915       -0.68470
C          6.85455        0.59631       -0.34468
C          4.93033        2.01813       -0.72252
N          7.17656        2.92948       -0.92606
C          5.99240       -0.45948       -0.05472
C          4.60418       -0.30972       -0.08994
Cl         6.67933       -2.01635        0.36292
C          4.09085        0.94576       -0.42858
H          7.93373        0.43885       -0.30215
H          4.50648        2.99169       -0.98141
H          6.79010        3.70890       -1.44513
H          8.13414        2.71304       -1.17644
H          3.95212       -1.15222        0.14008
H          3.00740        1.08948       -0.46539
