12
M-DICHLOROBENZENE.gamout	Energy:   -1150.7375402
Cl        -2.71208        0.83085       -0.00018
C         -1.20090       -0.04683       -0.00020
C          0.00012        0.66682        0.00009
C          1.20107       -0.04737       -0.00015
C          1.21544       -1.44487       -0.00050
C         -0.00010       -2.13311       -0.00072
C         -1.21534       -1.44413        0.00161
Cl         2.71198        0.83108        0.00010
H          0.00044        1.75637        0.00021
H          2.16653       -1.97826       -0.00074
H         -0.00048       -3.22642       -0.00123
H         -2.16653       -1.97730        0.00110
