24
M-DIETHYLBENZENE.gamout	Energy:    -388.9612584
C         -1.01626        0.54008       -2.24027
C         -1.86045        0.14399       -3.27945
C         -3.00066       -0.61601       -3.01113
C         -3.31248       -0.99073       -1.69606
C         -2.45308       -0.58119       -0.66660
C         -1.30319        0.18175       -0.91512
H         -0.12963        1.14266       -2.45835
H         -1.63282        0.43870       -4.30719
H         -3.66034       -0.91584       -3.83068
C         -4.52317       -1.84754       -1.39981
H         -2.69062       -0.86151        0.36520
C         -0.37820        0.57632        0.21475
H         -5.31479       -1.63237       -2.13739
H         -4.93577       -1.57123       -0.41436
C         -4.21128       -3.35172       -1.41466
H         -3.83235       -3.66680       -2.40063
H         -5.11154       -3.94597       -1.19093
H         -3.44009       -3.60467       -0.66913
H         -0.97427        0.75342        1.12637
H          0.10987        1.53520       -0.02799
C          0.69613       -0.48086        0.51157
H          1.33244       -0.65787       -0.37085
H          0.23890       -1.44528        0.78609
H          1.34519       -0.16168        1.34241
