12
M-DIBROMOBENZENE.gamout	Energy:   -5378.1918625
Br         7.48452        3.30980       -1.05606
C          6.32096        1.85148       -0.66840
C          6.87550        0.61278       -0.33767
C          4.93804        2.03922       -0.72041
C          6.01169       -0.44874       -0.05617
C          4.09779        0.96004       -0.43435
Br         6.74418       -2.14736        0.39722
C          4.62539       -0.29015       -0.10061
H          7.95595        0.47773       -0.30043
H          4.52655        3.01463       -0.98076
H          3.01337        1.09632       -0.47250
H          3.97016       -1.13252        0.12244
