21
M-ETHYLTOLUENE.gamout	Energy:    -349.7052534
C          1.04792        2.34728        1.58640
C          1.94853        2.00022        0.39107
C          3.41815        2.22781        0.66946
C          4.01381        3.47194        0.41304
C          4.21142        1.21333        1.22237
C          5.36283        3.72642        0.69488
C          5.55850        1.44516        1.50708
C          5.97280        5.08221        0.43198
C          6.13166        2.69016        1.24536
H          1.30518        1.73704        2.46736
H          1.16006        3.40544        1.87365
H         -0.01334        2.17018        1.34795
H          1.64412        2.60421       -0.48041
H          1.78881        0.94531        0.11050
H          3.40573        4.26913       -0.02673
H          3.77198        0.23204        1.42321
H          6.17019        0.64405        1.92971
H          6.02660        5.68245        1.35770
H          7.00000        4.99417        0.04391
H          5.38198        5.65655       -0.29726
H          7.18961        2.85937        1.46530
