16
M-HIDROXYBENZOIC_ACID.gamout	Energy:    -495.4195969
C          6.48205        1.86956       -0.51753
C          6.97523        0.58510       -0.24358
C          5.10209        2.06981       -0.62717
O          7.29245        2.94504       -0.68411
C          4.22498        0.99332       -0.46383
C          4.71557       -0.29353       -0.18992
C          2.76507        1.27262       -0.59238
C          6.09236       -0.48549       -0.08189
O          2.28577        2.35774       -0.82662
O          1.99988        0.17309       -0.41862
H          8.05471        0.42537       -0.15710
H          4.70911        3.06426       -0.83972
H          8.21514        2.67554       -0.58453
H          4.02230       -1.12441       -0.06490
H          6.49005       -1.48067        0.13095
H          1.07838        0.46515       -0.52196
