19
M-METHYLSTYRENE.gamout	Energy:    -348.4826753
C          5.80670        4.30095        0.35060
C          4.98919        3.26942        0.60952
C          3.61714        3.32262        1.14438
C          2.91723        2.12071        1.35251
C          2.96683        4.52954        1.46268
C          1.61050        2.09018        1.85898
C          1.67076        4.51757        1.96905
C          0.88337        0.78101        2.04883
C          0.99415        3.30982        2.16853
H          5.51657        5.34174        0.52154
H          6.81033        4.13404       -0.04751
H          5.36004        2.25708        0.40941
H          3.41347        1.17568        1.11063
H          3.47825        5.48298        1.31619
H          1.17821        5.46145        2.21486
H          0.14248        0.84509        2.86023
H          0.33998        0.48792        1.13271
H          1.58033       -0.03699        2.28823
H         -0.02312        3.31648        2.56944
