16
M-NITROANILINE.gamout	Energy:    -491.4832267
O          6.67782        4.03189       -1.23901
N          7.18284        2.96023       -0.94593
O          8.38394        2.75751       -0.85933
C          6.27270        1.82384       -0.67570
C          6.83994        0.59562       -0.35075
C          4.89625        2.02998       -0.75407
C          6.00234       -0.50335       -0.08622
C          4.07011        0.93558       -0.48877
N          6.53390       -1.74609        0.19364
C          4.60576       -0.30903       -0.16144
H          7.92529        0.50947       -0.30817
H          4.50660        3.01277       -1.01155
H          2.98449        1.05290       -0.53726
H          5.93161       -2.42543        0.64163
H          7.50169       -1.79007        0.48831
H          3.93848       -1.15138        0.03887
