16
M-PHENYLENEDIAMINE.gamout	Energy:    -342.5051158
N          7.18855        2.90318       -1.03449
C          6.35060        1.85018       -0.68314
C          6.88414        0.59027       -0.34506
C          4.95564        2.01312       -0.71375
C          6.02035       -0.46424       -0.05197
C          4.63535       -0.30576       -0.08291
C          4.08788        0.94909       -0.41648
N          2.71151        1.14924       -0.39993
H          6.80099        3.83482       -0.93551
H          8.14121        2.84206       -0.69355
H          7.96713        0.44593       -0.32117
H          4.53667        2.98997       -0.97461
H          6.43859       -1.44070        0.20867
H          3.97458       -1.14297        0.15515
H          2.36567        1.92346       -0.95573
H          2.14246        0.31636       -0.50045
