16
M-TOLUNITRILE.gamout	Energy:    -363.3173091
N          7.89763        3.84551       -1.22901
C          7.18735        2.95980       -0.98318
C          6.30946        1.86253       -0.67977
C          6.84921        0.60755       -0.34183
C          4.91681        2.04139       -0.71876
C          6.01781       -0.47596       -0.04223
C          4.08437        0.96350       -0.41917
C          6.58953       -1.82722        0.30994
C          4.62783       -0.27778       -0.08520
H          7.93401        0.48638       -0.31504
H          4.50149        3.01579       -0.98005
H          3.00002        1.09307       -0.44503
H          7.68312       -1.78727        0.41618
H          6.16923       -2.20358        1.25684
H          6.35542       -2.57378       -0.46816
H          3.96084       -1.11219        0.14870
