18
M-TOLUIC_ACID.gamout	Energy:    -459.5454086
O          7.05774        4.03196       -1.68155
C          7.58925        2.87159       -1.23765
O          8.78466        2.70787       -1.14815
C          6.55889        1.85467       -0.88437
C          6.99936        0.60954       -0.41068
C          5.18749        2.11077       -1.01288
C          6.09163       -0.39383       -0.05977
C          4.27217        1.11584       -0.66532
C          6.55826       -1.73566        0.44967
C          4.71999       -0.11956       -0.19517
H          7.80951        4.61543       -1.88043
H          8.07528        0.44504       -0.32325
H          4.84928        3.07954       -1.38111
H          3.20016        1.30391       -0.76151
H          7.65558       -1.78811        0.49482
H          6.16973       -1.93912        1.46208
H          6.20870       -2.55560       -0.20044
H          3.99061       -0.88947        0.07312
