11
MALEATE_MONOANION-1.gamout	Energy:    -454.5983707
O          2.95833        0.00566        0.00000
O         -2.90210       -0.02861        0.00000
O          1.53955        1.73623        0.00000
O         -1.42986        1.69971        0.00000
C          0.70631       -0.57507       -0.00000
C         -0.64708       -0.58239        0.00000
C          1.67681        0.53826       -0.00000
C         -1.76566        0.50527        0.00000
H          1.21702       -1.54507        0.00000
H         -1.09386       -1.58578       -0.00000
H          3.53054        0.78960        0.00000
