10
MALEATE_DIANION-2.gamout	Energy:    -453.8580687
O          2.63180        0.44669       -0.00000
O         -2.63177        0.44677       -0.00000
O          0.73091        1.53571       -0.00000
O         -0.73092        1.53571        0.00000
C          0.66932       -0.89917        0.00000
C         -0.66940       -0.89925        0.00000
C          1.43633        0.35654        0.00000
C         -1.43629        0.35647        0.00000
H          1.26666       -1.81296        0.00000
H         -1.26663       -1.81308        0.00000
