45
MALTOSE.gamout	Energy:   -1296.2738783
O         -0.92189       -1.66489       -0.51079
O          0.09071       -0.21281       -2.68071
O          1.89376       -1.76502       -4.17429
O          2.50640       -4.30167       -3.17477
O          1.21703       -2.66052       -0.17061
O          1.92932       -5.15517        0.92259
C          0.47352       -1.56329       -0.63601
C          0.97933       -1.09339       -2.02816
C          1.27550       -2.22901       -2.99241
C          2.22963       -3.21031       -2.33101
C          1.58833       -3.73694       -1.04963
C          2.51143       -4.65654       -0.25735
O         -4.77072       -3.12495        0.80214
O         -3.26303       -5.36485        1.51238
O         -0.78026       -4.34837        0.90960
O         -4.02541       -3.35400       -1.39809
O         -4.20649       -0.94840       -2.89950
C         -4.30305       -4.00193       -0.17907
C         -3.02750       -4.67604        0.31481
C         -1.92474       -3.63414        0.47663
C         -1.71257       -2.81861       -0.81075
C         -3.07281       -2.30083       -1.32025
C         -3.01612       -1.68299       -2.69987
H         -0.20519        0.46606       -2.05959
H          1.32585       -1.07824       -4.55193
H          2.72605       -3.93374       -4.04387
H          1.07115       -5.55199        0.71042
H          0.70895       -0.75546        0.07626
H          1.94937       -0.59092       -1.83585
H          0.33817       -2.76833       -3.23559
H          3.15806       -2.65912       -2.07172
H          0.68933       -4.30872       -1.34101
H          2.84107       -5.45974       -0.94347
H          3.40585       -4.08674        0.04515
H         -5.61066       -2.75848        0.49336
H         -2.39138       -5.55561        1.89011
H         -0.04003       -3.73569        1.06358
H         -4.20595       -0.61320       -3.80357
H         -5.05790       -4.76708       -0.42885
H         -2.71731       -5.37258       -0.49263
H         -2.25135       -2.92056        1.25594
H         -1.24581       -3.44812       -1.58849
H         -3.41404       -1.52806       -0.61009
H         -2.11789       -1.04530       -2.76853
H         -2.91103       -2.50879       -3.43328
