18
MANDELATE-1.gamout	Energy:    -534.1190889
O          1.69745       -1.67182        0.40400
O          1.87793        1.88766        0.38803
O          3.06572        0.19209       -0.54025
C         -0.26676       -0.24385        0.36725
C          1.18279       -0.41880        0.76564
C         -0.97209        0.92724        0.70108
C         -0.93878       -1.24608       -0.34777
C         -2.30655        1.08477        0.32736
C         -2.27779       -1.08933       -0.71817
C         -2.97190        0.07639       -0.38147
C          2.13297        0.70262        0.13279
H          1.24760       -0.26287        1.86520
H         -0.43005        1.72122        1.21731
H         -0.37705       -2.14760       -0.59953
H         -2.83452        2.00821        0.58703
H         -2.78454       -1.88535       -1.27454
H         -4.02021        0.20128       -0.66984
H          2.47017       -1.35587       -0.14553
