48
MANGIFERIN.gamout	Energy:   -1560.3684295
O          3.51711        0.23221       -1.05596
O          2.48050       -0.46532        2.41664
O          5.30372       -0.63675        2.55074
O          6.77173        0.66730        0.52031
O          4.94263        1.50825       -3.17334
O          0.45816        1.28239        1.46183
O         -2.69905       -1.09656       -1.24170
O          1.88258       -1.52977       -2.12437
O         -2.03081        1.50646        1.87215
O         -7.15776        0.85308        1.35358
O         -7.41147       -0.82032       -0.65633
C          3.25518       -0.47057        1.23836
C          4.64796        0.08752        1.53417
C          2.64441        0.33921        0.07093
C          5.52574        0.05329        0.29099
C          4.82062        0.79123       -0.84958
C          1.24091       -0.06312       -0.31975
C          5.55215        0.72250       -2.17930
C          0.18506        0.46113        0.43065
C          0.93051       -0.96587       -1.36809
C         -1.16860        0.14010        0.14622
C         -1.42792       -0.75188       -0.91463
C         -0.40028       -1.30362       -1.66170
C         -2.24508        0.71804        0.92636
C         -3.58870        0.31831        0.51873
C         -3.74742       -0.57333       -0.55161
C         -4.74169        0.80647        1.17197
C         -5.02383       -0.97054       -0.96378
C         -6.00984        0.42428        0.77588
C         -6.15350       -0.48319       -0.31428
H          3.35804       -1.52149        0.91059
H          4.52648        1.15113        1.83562
H          2.60746        1.39864        0.38653
H          5.65339       -1.01010       -0.00306
H          4.70697        1.85493       -0.56560
H          5.64045       -0.34330       -2.48025
H          6.57152        1.10561       -2.02617
H          1.85563        0.28014        2.38436
H          4.67164       -0.72085        3.28132
H          7.10131        0.31953        1.36243
H         -0.61008       -1.98618       -2.48221
H          4.02718        1.20994       -3.26636
H         -0.44027        1.55584        1.84129
H          2.73333       -1.09248       -1.91462
H         -4.60060        1.50254        2.00441
H         -5.11230       -1.66627       -1.80055
H         -6.94724        1.45815        2.07696
H         -7.39488       -1.43612       -1.40136
