23
MDEGSO4-1.gamout	Energy:   -1045.6525619
O          4.55494       -3.54142       -2.39956
S          4.65899       -4.87251       -3.50442
O          6.10816       -4.89794       -3.75746
O          3.80764       -4.45230       -4.64096
C          3.25607       -3.28255       -1.94533
C          3.30911       -2.62793       -0.58137
H          2.68675       -4.22644       -1.84403
H          2.69933       -2.62556       -2.64435
O          3.76866       -1.29626       -0.68281
H          3.98369       -3.22209        0.06882
H          2.29613       -2.64072       -0.11977
C          4.04857       -0.70195        0.54368
C          4.48636        0.72743        0.31931
H          4.86115       -1.24258        1.07866
H          3.16251       -0.70438        1.21718
O          3.37246        1.52847        0.00340
H          4.99190        1.11234        1.23265
H          5.22623        0.73934       -0.50609
C          3.71553        2.81307       -0.41644
H          4.35976        2.80181       -1.32054
H          4.25586        3.38659        0.36999
H          2.78657        3.35180       -0.65933
O          4.11773       -6.01233       -2.72042
