62
MEDROXYPROGESTERONE_ACETATE.gamout	Energy:   -1234.2748444
O         -3.16069        0.16927        1.23547
O         -4.86613        0.22818       -1.85940
O          6.42466        0.51837        1.73989
O         -5.31316       -0.45162        1.46810
C         -1.74435        0.35950       -0.70593
C         -0.90159       -0.86576       -0.26248
C          0.58719       -0.78526       -0.65472
C          1.20664        0.50707       -0.06149
C         -3.17318       -0.07744       -0.19388
C          2.74693        0.67518       -0.34747
C         -1.12444        1.61231       -0.07258
C          0.36825        1.75024       -0.43052
C         -1.74572       -2.07110       -0.69845
C          1.38759       -2.00678       -0.18900
C         -3.20895       -1.60449       -0.48372
C          2.88370       -1.90716       -0.54258
C          3.48402       -0.62300        0.00059
C         -1.79242        0.51709       -2.23704
C          3.28798        1.83708        0.52333
C          3.02042        0.98662       -1.83725
C         -4.33785        0.69015       -0.87390
C          4.80976        1.90381        0.62852
C          4.64700       -0.61858        0.69173
C          3.63348       -3.18984       -0.17660
C          5.38836        0.58927        1.10328
C         -4.71382        2.07122       -0.36680
C         -4.26344       -0.11350        1.95734
C         -3.99870        0.05973        3.42963
H         -0.92867       -0.85157        0.84228
H          0.65672       -0.74438       -1.75701
H          1.12940        0.38757        1.03613
H         -1.23147        1.55465        1.02056
H         -1.65178        2.52284       -0.39797
H          0.47097        1.96158       -1.50720
H          0.76255        2.63650        0.08728
H         -1.51741       -2.97228       -0.11144
H         -1.56143       -2.32515       -1.75644
H          0.98241       -2.92610       -0.64008
H          1.28437       -2.12145        0.90687
H         -3.84361       -1.78539       -1.36062
H         -3.69019       -2.12231        0.35646
H          2.93437       -1.80921       -1.64546
H         -2.36638       -0.27943       -2.72598
H         -2.26188        1.47139       -2.51785
H         -0.78424        0.51674       -2.66745
H          2.87714        1.73141        1.54237
H          2.91118        2.79179        0.13342
H          2.55139        0.25460       -2.50950
H          2.64141        1.98182       -2.10931
H          4.09993        0.97296       -2.04450
H          5.13326        2.69381        1.31974
H          5.27109        2.13689       -0.34948
H          5.15873       -1.54735        0.94268
H          3.64880       -3.36096        0.91240
H          3.14580       -4.05865       -0.64495
H          4.67451       -3.16789       -0.52992
H         -4.92830        2.08707        0.70942
H         -3.88100        2.76987       -0.54812
H         -5.59584        2.40626       -0.92459
H         -3.60874        1.06995        3.62712
H         -3.22594       -0.65556        3.75184
H         -4.92427       -0.10731        3.99231
