39
MEPERIDINE.gamout	Energy:    -788.3853870
O         -1.88133       -1.43866        0.47444
O         -1.39346       -1.66791       -1.70440
N          3.12494       -0.92949        0.24273
C          0.22621       -0.57092       -0.24611
C          1.25732       -0.87161       -1.35578
C          0.81696       -1.15230        1.05929
C          2.65397       -0.36124       -1.00931
C          2.22547       -0.63336        1.34375
C         -0.14895        0.92809       -0.15128
C         -1.08784       -1.29173       -0.59820
C          4.50139       -0.60001        0.53072
C         -0.30320        1.69691       -1.31753
C         -0.43534        1.55119        1.07480
C         -0.71297        3.03068       -1.26166
C         -0.84129        2.88613        1.13589
C         -0.98329        3.63521       -0.03314
C         -3.15844       -2.06002        0.25508
C         -3.84990       -2.18576        1.59537
H          0.93036       -0.47074       -2.32221
H          1.30628       -1.96385       -1.48092
H          0.87826       -2.24609        0.94117
H          0.15929       -0.96777        1.91676
H          3.35019       -0.65894       -1.81029
H          2.66033        0.75464       -0.98313
H          2.19321        0.45959        1.56484
H          2.60962       -1.12508        2.25248
H          5.15204       -0.93069       -0.29534
H          4.83215       -1.11964        1.44447
H          4.67776        0.49157        0.68115
H         -0.11144        1.25232       -2.29440
H         -0.35174        0.99352        2.00730
H         -0.82453        3.59765       -2.18892
H         -1.04938        3.34104        2.10740
H         -1.29887        4.67992        0.01356
H         -3.73403       -1.44178       -0.45351
H         -3.00174       -3.03922       -0.22641
H         -4.82756       -2.67718        1.47012
H         -3.24832       -2.78852        2.29370
H         -4.01617       -1.19591        2.04836
