17
MESITYL_OXIDE.gamout	Energy:    -309.4505726
C          3.25617        1.36447        2.23171
C          4.45246        1.99455        2.14204
C          1.98391        1.71126        1.54481
C          5.63437        1.48558        2.92233
C          4.72179        3.20772        1.29861
C          0.81369        0.79505        1.86840
O          1.84053        2.64581        0.77391
H          3.19984        0.48862        2.88665
H          6.01867        2.26935        3.59932
H          5.39120        0.59674        3.52159
H          6.46646        1.23038        2.24171
H          5.09202        4.03182        1.93471
H          5.53034        2.99017        0.57724
H          3.82920        3.53533        0.75774
H          1.04917       -0.24587        1.58847
H          0.60874        0.79777        2.95251
H         -0.07660        1.13216        1.32250
