9
MESO4-1.gamout	Energy:    -738.3935654
C         -1.13437       -1.49082        0.85662
O         -1.34624       -2.63609        0.07998
H         -1.49599       -1.62041        1.89654
H         -0.06124       -1.21654        0.90551
H         -1.69132       -0.65737        0.38919
S         -0.56039       -4.05228        0.68651
O          0.87751       -3.68855        0.67090
O         -0.98512       -5.04184       -0.31724
O         -1.13214       -4.22682        2.04359
