6
METHANOL.gamout	Energy:    -115.5655847
H          0.21893        0.82655        1.60594
C          0.67305        0.98041        0.60553
H         -0.04882        1.55200        0.00115
H          0.78846       -0.01495        0.12931
O          1.87125        1.71793        0.64744
H          2.51057        1.22295        1.17488
