21
METHYL_P-TOLUATE.gamout	Energy:    -498.7896252
O         -2.47045       -0.83384        0.02854
O         -2.33998        1.40725       -0.07732
C          2.49586       -0.13381        0.00040
C         -0.31550        0.12973       -0.01459
C          1.89151        1.13105       -0.06042
C          1.66384       -1.26476        0.05395
C          0.50457        1.26398       -0.06784
C          0.27721       -1.14124        0.04670
C          3.99493       -0.28850        0.00838
C         -1.79036        0.33000       -0.02580
C         -3.89088       -0.72660        0.02120
H          2.51964        2.02466       -0.10259
H          2.11460       -2.26014        0.10163
H          0.03130        2.24605       -0.11500
H         -0.35798       -2.02647        0.08835
H          4.33908       -0.89034       -0.84981
H          4.50225        0.68591       -0.03869
H          4.33900       -0.80455        0.92077
H         -4.27724       -1.75259        0.07028
H         -4.24216       -0.23028       -0.89679
H         -4.24438       -0.14346        0.88559
