6
METHYL_MERCAPTAN.gamout	Energy:    -438.4642699
C         -1.93259        0.26158        0.20691
S         -2.70710        1.79118       -0.43259
H         -2.45950       -0.57409       -0.27552
H         -2.05446        0.16860        1.29598
H         -0.86669        0.20222       -0.05720
H         -1.95181        2.66196        0.27635
