20
METHYL_VALERATE.gamout	Energy:    -385.8121748
C          1.12381        0.12887       -0.00040
C         -0.16912       -0.65974       -0.00058
C         -1.42225        0.21260        0.00037
C         -2.72161       -0.59768        0.00005
C         -3.98077        0.27178        0.00077
O          1.22019        1.33172       -0.00177
O          2.19125       -0.69509        0.00111
C          3.47067       -0.06411        0.00058
H         -0.14298       -1.33204       -0.87702
H         -0.14258       -1.33354        0.87468
H         -1.39449        0.87980        0.87919
H         -1.39481        0.88106       -0.87751
H         -2.73705       -1.26500       -0.88181
H         -2.73683       -1.26611        0.88108
H         -4.01878        0.92312        0.89040
H         -4.01913        0.92420       -0.88805
H         -4.89349       -0.34483        0.00056
H          3.59603        0.56824       -0.89202
H          3.59582        0.57013        0.89186
H          4.21272       -0.87254        0.00153
