16
METHYL_N-PROPYL_KETONE.gamout	Energy:    -271.4068820
C          3.28708        2.78190        2.26146
C          1.90486        2.36657        2.80217
C          0.97880        3.55660        3.05882
C          4.21976        1.58495        2.11239
C          4.19835        0.85831        0.78024
O          4.92993        1.22414        3.02504
H          3.76026        3.47934        2.97089
H          3.16816        3.29677        1.29212
H          2.05193        1.79800        3.73657
H          1.42105        1.67219        2.09168
H          0.78874        4.12832        2.13454
H          1.41502        4.25216        3.79522
H          0.00459        3.22376        3.45102
H          4.77595       -0.07251        0.85218
H          4.64311        1.50306        0.00198
H          3.16576        0.64162        0.45988
