18
METHYL_N-BUTYL_ETHER.gamout	Energy:    -272.5861465
C          2.23255        1.96621        1.59310
O          1.08057        1.34570        2.11843
C          0.92075        1.45730        3.50704
C          3.52463        1.17061        1.79577
C          4.72575        1.81222        1.09618
C          6.02982        1.03442        1.27995
H          2.34772        2.98915        2.01278
H          2.04519        2.08363        0.51178
H         -0.05177        1.01247        3.76690
H          0.91995        2.51642        3.83989
H          1.70484        0.92391        4.08100
H          3.36287        0.14755        1.41161
H          3.74284        1.06817        2.87435
H          4.85885        2.84467        1.46911
H          4.50505        1.91145        0.01717
H          5.94484        0.00802        0.88480
H          6.30385        0.95587        2.34578
H          6.86614        1.52458        0.75682
