53
METHYLPALMITATE.gamout	Energy:    -817.6296737
C         -0.24132        0.03701       -0.17622
O         -0.32794        0.98721       -0.91472
O         -1.31582       -0.54727        0.39525
C          1.05142       -0.63199        0.24395
C         -2.58417        0.02473        0.08265
H         -3.33448       -0.58973        0.59675
H         -2.76499        0.01724       -1.00334
H         -2.64182        1.06629        0.43542
H          1.28496       -0.27346        1.26401
H          1.83661       -0.23593       -0.41760
C          1.02861       -2.16770        0.23605
H          0.74593       -2.52147       -0.77205
H          0.23370       -2.51763        0.91514
C          2.37132       -2.79321        0.63762
H          2.66884       -2.40808        1.63124
H          3.15758       -2.45195       -0.06193
C          2.35487       -4.32874        0.67248
H          2.05912       -4.71081       -0.32276
H          1.56220       -4.66478        1.36743
C          3.68993       -4.96956        1.08230
H          3.99944       -4.56825        2.06579
H          4.47798       -4.65657        0.37136
C          3.64923       -6.50360        1.15283
H          3.33895       -6.90465        0.16947
H          2.85611       -6.80957        1.86140
C          4.97460       -7.15985        1.57057
H          5.29740       -6.73999        2.54203
H          5.76496       -6.88113        0.84799
C          4.90405       -8.69064        1.68197
H          4.57748       -9.11200        0.71243
H          4.11092       -8.96052        2.40508
C          6.21929       -9.36208        2.10771
H          6.55610       -8.92445        3.06654
H          7.01048       -9.11650        1.37403
C          6.12180      -10.88818        2.25805
H          5.78031      -11.32794        1.30188
H          5.33014      -11.12554        2.99407
C          7.42902      -11.57064        2.69050
H          7.77685      -11.11867        3.63875
H          8.21983      -11.35055        1.94832
C          7.31308      -13.09219        2.87187
H          6.96008      -13.54631        1.92660
H          6.52377      -13.30564        3.61771
C          8.61383      -13.78170        3.30865
H          8.96995      -13.32227        4.25044
H          9.40498      -13.58050        2.56125
C          8.48324      -15.29677        3.50897
H          8.12196      -15.75907        2.57169
H          7.69761      -15.49495        4.26168
C          9.78413      -15.97512        3.94448
H         10.15058      -15.56346        4.90040
H         10.58388      -15.83197        3.19774
H          9.64614      -17.05932        4.08067
