26
METHYL_HEPTANOATE.gamout	Energy:    -464.2992252
C          1.27921       -0.07639       -0.08086
C          0.48109       -1.34429       -0.44382
O          1.03662       -2.53066       -0.78490
O         -0.72049       -1.28191       -0.42691
C          2.80651        0.05431       -0.03338
C          2.41515       -2.84218       -0.88257
C          3.24569        1.47451        0.35996
C          4.76713        1.65583        0.42167
C          5.21576        3.07081        0.80494
C          6.73556        3.23777        0.86065
H          0.85998        0.20881        0.89946
H          0.87140        0.67983       -0.77390
H          3.25008       -0.18866       -1.01352
H          3.23658       -0.66012        0.68866
H          2.45931       -3.89755       -1.18457
H          2.93994       -2.73448        0.07915
H          2.92856       -2.24107       -1.64878
H          2.80582        1.73632        1.34100
H          2.81989        2.19872       -0.35993
H          5.20482        1.39072       -0.55989
H          5.19122        0.93131        1.14280
H          4.78028        3.33925        1.78538
H          4.79267        3.79367        0.08305
H          7.18819        2.55804        1.60260
H          7.01609        4.26612        1.13671
H          7.20078        3.01693       -0.11535
