13
METHYLAL.gamout	Energy:    -269.1878074
C          2.59796        1.48318        3.50837
O          1.72932        2.57407        3.37813
C          2.23232        3.59115        2.58179
O          1.26869        4.58800        2.55039
C          1.63918        5.69588        1.77727
H          3.56422        1.76807        3.97472
H          2.82242        1.00526        2.53187
H          2.10590        0.74126        4.15337
H          3.19611        3.98410        2.99870
H          2.45069        3.21664        1.54785
H          1.81781        5.42596        0.71553
H          2.55799        6.18580        2.16156
H          0.81441        6.42162        1.81781
