10
METHACRYLONITRILE.gamout	Energy:    -209.8631244
C         49.01162       34.01488        0.00010
C         48.24394       32.71559        0.00000
C         46.90281       32.62605       -0.00001
C         49.03409       31.50979        0.00000
N         49.70075       30.55873       -0.00000
H         48.32140       34.87015        0.00000
H         49.66244       34.08713        0.88706
H         49.66268       34.08713       -0.88668
H         46.39335       31.66034       -0.00008
H         46.28596       33.52824       -0.00007
