16
METHOXYETHYLSULFATE-1.gamout	Energy:    -892.0234383
C         -1.90891       -4.17953       -0.35839
O         -0.83279       -3.38152        0.01170
H         -1.66967       -5.22404       -0.10079
H         -2.12016       -4.13266       -1.45123
H         -2.84877       -3.89968        0.16704
C         -1.02501       -2.01149       -0.27398
C          0.12624       -1.17776        0.24811
H         -1.11502       -1.86770       -1.37481
H         -1.96621       -1.64833        0.18786
O          0.04556       -1.06815        1.64169
H          0.06097       -0.17613       -0.22268
H          1.08435       -1.63623       -0.07222
S          0.98455        0.23167        2.30355
O          2.36816       -0.08159        1.87693
O          0.69159        0.07057        3.73630
O          0.40573        1.43677        1.65992
