16
METHYL_PHENYL_SULFIDE.gamout	Energy:    -669.2005601
S          0.92950        2.27121       -2.00763
C         -0.07235        1.38402       -0.81075
C         -0.63629        2.06234        0.27968
C         -0.26327        0.00026       -0.93568
C         -1.39540        1.36681        1.22410
C         -1.02263       -0.69298        0.01042
C         -1.59004       -0.01076        1.09018
C         -0.35534        2.75930       -3.21736
H         -0.47117        3.13722        0.38119
H          0.19213       -0.52586       -1.77752
H         -1.83319        1.90094        2.07155
H         -1.16803       -1.77156       -0.09285
H         -2.18107       -0.55399        1.83151
H          0.16006        3.32415       -4.00796
H         -1.11429        3.40336       -2.74893
H         -0.83997        1.87638       -3.65947
