6
METHANETHIOL.gamout	Energy:    -438.4642645
C          0.81235        0.99022        0.88167
H         -0.01112        0.28620        0.69490
H          0.94670        1.61547       -0.01300
H          0.54415        1.62035        1.74228
S          2.29122       -0.03145        1.22339
H          3.15233        0.99377        1.42114
