18
METHYL_ISOBUTYL_ETHER.gamout	Energy:    -272.5899894
C          0.30033       -0.55454       -0.17762
C         -1.03373       -0.01069        0.32548
C         -1.27573        1.41847       -0.16686
C         -2.17578       -0.95199       -0.06627
O          1.34810        0.26657        0.27732
C          2.61826       -0.15515       -0.13273
H          0.44394       -1.59698        0.18024
H          0.29739       -0.59801       -1.29045
H         -0.96366        0.01389        1.42892
H         -0.44236        2.07549        0.12022
H         -1.36855        1.44695       -1.26714
H         -2.20466        1.83028        0.25858
H         -2.01162       -1.97299        0.31587
H         -3.13700       -0.59584        0.33649
H         -2.28026       -1.01767       -1.16349
H          2.86417       -1.16796        0.24940
H          2.71402       -0.17950       -1.23839
H          3.35681        0.55653        0.26550
