19
METHYL_N-BUTYL_KETONE.gamout	Energy:    -310.6649697
O         -3.63214        1.59835        0.61546
C         -5.60817       -0.39974        0.33496
C         -6.51130       -1.62020        0.13114
C         -4.12919       -0.68569        0.08805
C         -7.99255       -1.32751        0.37943
C         -3.21149        0.51132        0.28587
C         -1.72392        0.28824        0.05076
H         -5.72958       -0.00722        1.35944
H         -5.92786        0.42089       -0.33062
H         -6.18185       -2.43640        0.80110
H         -6.38011       -2.00611       -0.89707
H         -3.95853       -1.06729       -0.93793
H         -3.75931       -1.49617        0.74687
H         -8.61072       -2.22609        0.22522
H         -8.36647       -0.54384       -0.30114
H         -8.16419       -0.97659        1.41110
H         -1.37834        0.98362       -0.73116
H         -1.17437        0.54668        0.97031
H         -1.47632       -0.74182       -0.24351
