31
METHYL_SINAPATE.gamout	Energy:    -840.6878255
C          1.45911       -0.71824        0.89389
C          0.83113        0.12703        1.94711
O          1.11848       -1.87352        0.78839
O          2.40676       -0.27389        0.02680
C          0.98957        1.41923        2.31380
C          0.27842        2.11002        3.39531
C          2.95011        1.02681       -0.03698
C          0.57798        3.46956        3.63287
C         -0.68093        1.48429        4.20031
C         -0.08139        4.14984        4.65113
C         -1.04854        3.51643        5.46142
O          0.10636        5.46237        4.99174
C         -1.35062        2.15866        5.22868
O         -1.65461        4.23863        6.43871
O         -2.24634        1.41037        5.91347
C         -3.02174        1.91689        6.98586
C          1.04246        6.23557        4.27748
H          0.11051       -0.49004        2.48939
H          1.70254        2.05195        1.78712
H          3.68267        1.00570       -0.85605
H          3.47830        1.30742        0.88998
H          2.18803        1.78779       -0.27663
H          1.32183        3.97456        3.01710
H         -0.94776        0.43727        4.05818
H         -1.27442        5.13110        6.39019
H         -3.63938        1.07328        7.32448
H         -3.67763        2.74191        6.66704
H         -2.39471        2.26625        7.82070
H          1.02176        7.24175        4.71739
H          0.77969        6.30744        3.20654
H          2.06435        5.82519        4.36809
