7
METHYLAMINE.gamout	Energy:     -95.7191506
C          0.61851        1.08921        0.85770
N          1.89971        1.76121        1.03141
H          0.07917        1.53102        0.00304
H          0.66029       -0.00890        0.68596
H         -0.01261        1.25485        1.74699
H          2.40809        1.35306        1.81700
H          2.49184        1.60890        0.21382
