53
METHYL_PALMITATE.gamout	Energy:    -817.6310506
C         18.66053        7.39037        1.44180
O         17.37491        7.66299        1.99657
O         16.42187        6.65345        0.22777
H         18.79637        6.31076        1.27502
H         18.79039        7.90731        0.47792
H         19.39470        7.75896        2.16963
C         16.31510        7.23965        1.27689
C         15.01440        7.60442        1.96133
H          7.30245        8.50215        1.82734
C         13.77343        7.10761        1.22077
H         15.05889        7.21110        2.99243
H         15.00287        8.70359        2.07549
C         12.45740        7.51767        1.89118
H         13.82440        6.00842        1.13253
H         13.80362        7.48460        0.18407
C         11.20606        7.02768        1.14948
H         12.43882        7.13613        2.92999
H         12.41917        8.62041        1.97820
C          9.88215        7.44633        1.80348
H         11.24009        5.92482        1.06756
H         11.23206        7.40414        0.10939
C          8.63320        6.98697        1.03765
H          9.84357        7.05224        2.83684
H          9.85992        8.54830        1.90360
C          7.30624        7.40431        1.68745
H          8.65612        5.88601        0.92828
H          8.67386        7.38906        0.00751
C          6.06037        6.99842        0.88656
H          7.24551        6.97394        2.70507
C          4.73158        7.40971        1.53690
H          6.12223        7.44538       -0.12385
H          6.06672        5.90314        0.72845
C          3.48949        7.06619        0.70122
H          4.74556        8.49958        1.72850
H          4.64766        6.93304        2.53194
C          2.16013        7.46929        1.35550
H          3.47852        5.98015        0.48909
H          3.57292        7.56154       -0.28480
C          0.92122        7.18013        0.49484
H          2.05863        6.95047        2.32759
H          2.18879        8.54921        1.59560
C         -0.40889        7.57236        1.15200
H          1.02037        7.71386       -0.46950
H          0.89743        6.10387        0.23841
C         -1.64020        7.31543        0.27512
H         -0.37683        8.64418        1.42628
H         -0.52226        7.02376        2.10649
C         -2.96207        7.69863        0.94355
H         -1.53197        7.87288       -0.67379
H         -1.66839        6.24690       -0.00853
H         -3.12429        7.12559        1.87249
H         -2.98453        8.76942        1.20973
H         -3.81924        7.50450        0.27967
