65
METHYL_EICOSANOATE.gamout	Energy:    -974.6544634
O         -9.68298        6.57674       -0.81565
O         -9.57979        7.86948        1.01927
C          0.76049       -1.22131        0.14046
C          0.22401        0.21565        0.07823
C          2.29049       -1.29921        0.04503
C         -1.30212        0.35079        0.17307
C          2.87363       -2.71794        0.10366
C         -1.78196        1.80790        0.10513
C          4.40572       -2.75484        0.00962
C         -3.30255        2.00248        0.19655
C          5.01941       -4.16096        0.06635
C         -3.73238        3.47534        0.12138
C          6.55231       -4.17244       -0.02592
C         -5.24790        3.71147        0.20771
C          7.18407       -5.57071        0.02948
C         -5.64871        5.19266        0.12447
C          8.71609       -5.56923       -0.06169
C         -7.16135        5.44143        0.20345
C          9.35190       -6.96304       -0.00725
C         -7.53614        6.93175        0.10989
C         10.87922       -6.94454       -0.09903
C         -9.02416        7.19631        0.18633
C        -11.09644        6.75613       -0.84112
H          0.30999       -1.81852       -0.67489
H          0.42681       -1.69892        1.08139
H          0.56767        0.68575       -0.86311
H          0.68729        0.80700        0.89088
H          2.61693       -0.81398       -0.89472
H          2.73134       -0.69386        0.85984
H         -1.77532       -0.23078       -0.64069
H         -1.65517       -0.10999        1.11528
H          2.44201       -3.32675       -0.71338
H          2.55386       -3.20800        1.04302
H         -1.41860        2.26011       -0.83747
H         -1.29607        2.38303        0.91623
H          4.72120       -2.25985       -0.92873
H          4.83050       -2.14079        0.82645
H         -3.79554        1.43584       -0.61605
H         -3.67515        1.55909        1.13941
H          4.60031       -4.77662       -0.75212
H          4.70766       -4.65875        1.00432
H         -3.35327        3.91169       -0.82227
H         -3.23122        4.03841        0.93154
H          6.86152       -3.67167       -0.96320
H          6.96732       -3.55386        0.79252
H         -5.75240        3.15381       -0.60384
H         -5.63381        3.28128        1.15113
H          6.77239       -6.19012       -0.79000
H          6.87702       -6.07323        0.96649
H         -5.26261        5.61903       -0.82071
H         -5.14248        5.75223        0.93355
H          9.02429       -5.06684       -0.99856
H          9.12840       -4.95015        0.75793
H         -7.67215        4.89529       -0.60749
H         -7.55585        5.02883        1.14979
H          8.94261       -7.58263       -0.82680
H          9.04659       -7.46701        0.92864
H         -7.17367        7.33952       -0.85041
H         -7.06767        7.51133        0.91860
H         11.29624       -7.96291       -0.05710
H         11.22055       -6.48441       -1.04225
H         11.32580       -6.36765        0.72888
H        -11.35582        7.82136       -0.94442
H        -11.46417        6.19069       -1.70683
H        -11.55899        6.37939        0.08443
