8
METHYL_FORMATE.gamout	Energy:    -228.7743909
C          0.03696        0.30731       -4.60977
O         -1.13785        0.26210       -4.85270
O          0.93742       -0.62560       -4.93863
H          0.55072        1.13452       -4.07440
C          0.43583       -1.76825       -5.63912
H         -0.31474       -2.29917       -5.03367
H         -0.03032       -1.46919       -6.59035
H          1.30093       -2.41597       -5.82553
