18
METHYLCYCLOPENTANE.gamout	Energy:    -235.5272146
C          0.68525        1.48300        1.54950
C          2.14033        1.12763        1.83855
C          3.18008        1.95484        1.06548
C          2.59078        1.33058        3.29416
C          4.51657        1.68364        1.78849
C          4.13125        1.26555        3.23837
H          0.43917        1.32990        0.48589
H          0.47541        2.54027        1.78971
H         -0.00794        0.86442        2.14303
H          2.29891        0.06074        1.58351
H          2.91165        3.02442        1.14453
H          3.21198        1.71056       -0.00839
H          2.15143        0.59595        3.98738
H          2.25971        2.33051        3.62996
H          5.17344        2.56704        1.77041
H          5.07048        0.87289        1.28757
H          4.48026        0.24145        3.45124
H          4.59439        1.91541        3.99684
