47
METHYL_TETRADECANOATE.gamout	Energy:    -739.0928015
C          1.99757        0.68530        0.50027
O          3.25869        0.14185        0.15172
C          3.50397       -0.95535       -0.60249
C          2.41396       -1.84647       -1.22934
O          4.65548       -1.24864       -0.79235
C          0.89746       -1.65653       -1.10014
C          0.12320       -2.74184       -1.86633
C         -1.40131       -2.60119       -1.76584
C         -2.18383       -3.67660       -2.53232
C         -3.70850       -3.53574       -2.42443
C         -4.49653       -4.60700       -3.19138
C         -6.02075       -4.46631       -3.07381
C         -6.81430       -5.53547       -3.83803
C         -8.33771       -5.39545       -3.70959
C         -9.13665       -6.46320       -4.46805
C        -10.65685       -6.32119       -4.32836
C        -11.44742       -7.39138       -5.08397
H          2.21570        1.56826        1.11649
H          1.38914       -0.01181        1.09657
H          1.42302        1.01141       -0.38044
H          2.68397       -2.85551       -0.87249
H          2.68843       -1.86176       -2.29827
H          0.59136       -0.67024       -1.48683
H          0.58982       -1.68545       -0.04142
H          0.42537       -3.73815       -1.49184
H          0.42541       -2.72032       -2.93041
H         -1.70006       -1.60213       -2.13640
H         -1.69772       -2.62510       -0.70002
H         -1.88359       -4.67629       -2.16501
H         -1.88867       -3.65030       -3.59833
H         -4.00887       -2.53460       -2.78814
H         -3.99976       -3.56470       -1.35727
H         -4.19503       -5.60854       -2.82986
H         -4.20779       -4.57703       -4.25914
H         -6.32344       -3.46393       -3.43217
H         -6.30482       -4.49840       -2.00478
H         -6.51044       -6.53780       -3.48058
H         -6.53325       -5.50350       -4.90780
H         -8.64348       -4.39284       -4.06474
H         -8.61433       -5.42876       -2.63864
H         -8.83267       -7.46670       -4.11344
H         -8.86552       -6.43170       -5.54055
H        -10.96330       -5.31910       -4.68199
H        -10.92613       -6.35376       -3.25632
H        -11.23478       -7.36181       -6.16621
H        -12.53266       -7.25436       -4.95471
H        -11.19558       -8.40473       -4.72698
