19
METHYL_TERT-BUTYL_KETONE.gamout	Energy:    -310.6615289
C         -0.64121        0.05839       -0.00008
C         -1.36574       -1.29301        0.00001
C         -1.02700        0.85450       -1.26271
C         -1.02687        0.85439        1.26267
C          0.88057       -0.18667        0.00000
O          1.34308       -1.30673        0.00007
C          1.82614        1.01025        0.00003
H         -1.09515       -1.88773       -0.88449
H         -1.09488       -1.88776        0.88438
H         -2.45699       -1.14172        0.00013
H         -2.11524        1.02720       -1.27847
H         -0.53699        1.83946       -1.30786
H         -0.76311        0.30146       -2.17837
H         -0.76293        0.30131        2.17829
H         -0.53675        1.83924        1.30765
H         -2.11513        1.02730        1.27858
H          1.33291        1.99057       -0.00006
H          2.47987        0.93381        0.88330
H          2.47990        0.93367       -0.88321
