15
METHYL_PROPYL_ETHER.gamout	Energy:    -233.3299744
C          1.20609        2.11968        2.12842
C          0.63035        2.84660        3.34372
C          2.10693        0.94827        2.52660
O          2.58436        0.18884        1.43938
C          3.67404        0.74624        0.75585
H          1.76847        2.83516        1.50308
H          0.39138        1.72561        1.49604
H         -0.02701        3.67652        3.04126
H          1.42763        3.27111        3.97780
H          0.03619        2.16419        3.97508
H          1.53140        0.24833        3.15729
H          2.95432        1.31459        3.14675
H          3.99464        0.02149       -0.00793
H          4.53148        0.94105        1.43337
H          3.42696        1.69668        0.24144
