20
METHYL_4-AMINOBENZOATE.gamout	Energy:    -514.8201090
O         -2.45981       -0.83477       -0.00011
O         -2.32397        1.40983       -0.00040
N          3.87336       -0.27327       -0.00017
C         -0.30696        0.12631       -0.00023
C          2.51127       -0.14325       -0.00019
C          0.52399        1.25906       -0.00041
C          0.29103       -1.14530       -0.00003
C          1.90445        1.13392       -0.00039
C          1.67259       -1.28088       -0.00001
C         -1.77086        0.33083       -0.00026
C         -3.87724       -0.71656       -0.00005
H          0.05346        2.24410       -0.00058
H         -0.34356       -2.03260        0.00013
H          2.53523        2.02696       -0.00055
H          2.12340       -2.27712        0.00017
H          4.31036       -1.18321        0.00002
H          4.47230        0.53923       -0.00033
H         -4.27278       -1.74068        0.00017
H         -4.22808       -0.17379       -0.89178
H         -4.22794       -0.17345        0.89154
