21
METHYL_DIETHANOLAMINE.gamout	Energy:    -402.9768732
C         16.91480       29.99521       -0.19288
C         15.70519       30.86446        0.13654
N         18.15504       30.75372       -0.25364
O         14.57277       30.01995        0.17920
C         19.32049       29.96512        0.09650
C         18.33523       31.50134       -1.48976
C         19.07536       32.81950       -1.28715
O         19.18356       33.44283       -2.55159
H         17.00320       29.24320        0.60636
H         16.70509       29.43006       -1.12895
H         15.58820       31.66149       -0.62603
H         15.89262       31.36934        1.10572
H         13.79675       30.55288        0.39083
H         20.22238       30.59597        0.10520
H         19.20698       29.54126        1.10658
H         19.51065       29.12281       -0.60911
H         17.35071       31.74628       -1.91535
H         18.86740       30.90869       -2.26729
H         20.07405       32.63697       -0.83918
H         18.50437       33.43501       -0.56279
H         19.64143       34.28562       -2.44516
