18
METHYL_TERT-BUTYL_ETHER.gamout	Energy:    -272.5909995
O          1.86449        0.52429        1.02020
C          2.75736        1.41579        1.70137
C          2.77574        1.14789        3.21324
C          4.12111        1.08460        1.09501
C          2.39524        2.88033        1.41288
C          0.51655        0.49238        1.40493
H          1.82660        1.42669        3.69709
H          2.96264        0.08057        3.41141
H          3.57441        1.73142        3.69771
H          4.38747        0.03891        1.31152
H          4.08310        1.20345        0.00166
H          4.90750        1.74172        1.49714
H          1.41998        3.15886        1.84209
H          2.35760        3.05736        0.32673
H          3.14717        3.55818        1.84708
H          0.01610        1.47767        1.33042
H          0.00670       -0.19775        0.71600
H          0.36672        0.11278        2.43472
