41
METHYL_LAURATE.gamout	Energy:    -660.6058976
C          8.77735       -0.27858       -0.00001
C          7.47544        0.52554        0.00008
C          6.21321       -0.34459       -0.00004
C          4.90462        0.45469        0.00001
C          3.63944       -0.41320       -0.00004
C          2.33111        0.38793       -0.00002
C          1.06607       -0.48064       -0.00002
C         -0.24322        0.31930       -0.00003
C         -1.50653       -0.55219        0.00003
C         -2.81451        0.24756       -0.00001
C         -4.06138       -0.63514        0.00007
C         -5.35976        0.14396        0.00002
O         -5.46492        1.34619       -0.00003
O         -6.42104       -0.68781        0.00004
C         -7.70468       -0.06603       -0.00004
H          9.65837        0.38317        0.00012
H          8.84930       -0.92809        0.88908
H          8.84936       -0.92780       -0.88931
H          7.45598        1.19305        0.88152
H          7.45598        1.19334       -0.88116
H          6.23366       -1.01254       -0.88229
H          6.23359       -1.01276        0.88205
H          4.88718        1.12283        0.88196
H          4.88713        1.12300       -0.88182
H          3.65708       -1.08127       -0.88206
H          3.65701       -1.08139        0.88190
H          2.31344        1.05611        0.88185
H          2.31337        1.05618       -0.88185
H          1.08456       -1.14874       -0.88204
H          1.08449       -1.14876        0.88199
H         -0.26234        0.98725        0.88177
H         -0.26245        0.98723       -0.88185
H         -1.48576       -1.22051       -0.88193
H         -1.48581       -1.22045        0.88204
H         -2.84977        0.91533        0.87795
H         -2.84986        0.91519       -0.87809
H         -4.08388       -1.30850       -0.87565
H         -4.08393       -1.30836        0.87590
H         -8.44143       -0.87931       -0.00002
H         -7.83425        0.56656        0.89178
H         -7.83417        0.56645       -0.89194
