28
METHYL_N-HEPTYL_KETONE.gamout	Energy:    -428.4336761
C          0.91813       -0.25372       -0.00006
C         -0.40555        0.51946       -0.00003
C          2.15192        0.64609       -0.00002
C         -1.64895       -0.37940       -0.00001
C         -2.97617        0.38806       -0.00002
C         -4.21623       -0.51315        0.00006
C          4.74536        0.75057        0.00007
C         -5.53781        0.25806        0.00001
O          3.54320       -1.30701       -0.00001
C          3.47929       -0.09732        0.00000
H          0.96645       -0.92235        0.87671
H          0.96648       -0.92229       -0.87688
H         -0.44125        1.18744        0.88178
H         -0.44135        1.18748       -0.88182
H          2.15522        1.32596       -0.87488
H          2.15524        1.32589        0.87490
H         -1.61407       -1.04678       -0.88168
H         -1.61414       -1.04678        0.88166
H         -3.01315        1.05545        0.88213
H         -3.01327        1.05540       -0.88222
H          4.54791        1.83209        0.00011
H          5.34856        0.48948        0.88447
H          5.34860        0.48956       -0.88433
H         -4.17954       -1.18020       -0.88110
H         -4.17955       -1.18008        0.88132
H         -5.62653        0.90527        0.88922
H         -5.62661        0.90511       -0.88931
H         -6.40082       -0.42663        0.00010
