51
METHYL_PALMITOLEATE.gamout	Energy:    -816.4055186
O         -5.27350        0.15379       -0.10816
O         -3.81670        0.93277       -1.63211
C         -0.06862        2.74196        0.18626
C          1.22291        1.92469        0.31671
C         -1.34727        1.92232        0.40303
C          2.50271        2.74598        0.13116
C         -2.63223        2.74852        0.27654
C          3.80316        1.92487        0.21675
C          2.25034       -2.31986        0.44375
C          3.76267       -2.51352        0.29113
C          1.44536       -3.62468        0.49057
C          4.57557       -1.20377        0.28881
C          3.99351        0.97620       -0.93575
C         -3.91834        1.96969        0.55951
C          4.31648       -0.32596       -0.90555
C         -0.06589       -3.41256        0.63867
C         -0.86497       -4.71297        0.74366
C         -4.29486        0.98209       -0.52474
C         -5.73701       -0.80110       -1.06139
H         -0.04639        3.58075        0.90858
H         -0.10276        3.21087       -0.81529
H          1.24739        1.43855        1.31056
H          1.20942        1.09914       -0.41761
H         -1.31370        1.45346        1.40499
H         -1.37463        1.09334       -0.32557
H          2.46814        3.26395       -0.84618
H          2.53765        3.54569        0.89197
H         -2.69714        3.17368       -0.73925
H         -2.58865        3.60143        0.97468
H          4.65196        2.63499        0.22950
H          3.84371        1.38892        1.17976
H          1.87624       -1.68755       -0.38175
H          2.05518       -1.74555        1.36939
H          4.13455       -3.14952        1.11399
H          3.97297       -3.07401       -0.63958
H          1.80774       -4.24847        1.33041
H          1.64057       -4.21586       -0.42493
H          5.64879       -1.47345        0.29489
H          4.39859       -0.65545        1.22928
H          3.86572        1.43353       -1.92623
H         -4.77275        2.66291        0.65600
H         -3.87486        1.42783        1.51942
H          4.42538       -0.83408       -1.87335
H         -0.25864       -2.79287        1.53458
H         -0.43685       -2.81908       -0.21732
H         -0.54443       -5.31134        1.61357
H         -1.94241       -4.51348        0.85663
H         -0.73691       -5.34276       -0.15365
H         -6.50195       -1.39975       -0.55063
H         -4.91155       -1.44459       -1.40245
H         -6.17153       -0.30096       -1.94126
