7
METHYL_ISOCYANATE.gamout	Energy:    -207.7254871
N          1.64553       -0.34681        0.00098
C          0.51238        0.04482        0.00060
O         -0.55624        0.53752        0.00045
C          2.51613       -1.47829       -0.00013
H          3.56446       -1.14388        0.00145
H          2.36019       -2.10754        0.89287
H          2.36189       -2.10435       -0.89567
