12
METHYL_ETHYL_ETHER.gamout	Energy:    -194.0737789
O          0.96988        1.68818        0.78568
C          0.82711        3.06446        1.00977
C          1.96873        1.05496        1.55588
C          3.39303        1.32877        1.07546
H          1.71025        3.65320        0.68994
H         -0.03917        3.40897        0.42520
H          0.63832        3.29312        2.07999
H          1.86628        1.33969        2.62500
H          1.75800       -0.02491        1.48478
H          4.11427        0.73959        1.66525
H          3.50104        1.04738        0.01567
H          3.67147        2.39001        1.17803
