21
METHYL_AMYL_ETHER.gamout	Energy:    -311.8449235
C         34.95694       -0.01082       -0.00008
C         36.32735        0.67191        0.00015
C         37.49530       -0.30356        0.00001
C         33.78210        0.97412        0.00009
O         38.69863        0.42564        0.00018
C         32.41036        0.29695       -0.00012
C         39.84578       -0.37503        0.00007
H         34.87413       -0.67280       -0.88272
H         34.87409       -0.67319        0.88227
H         36.42755        1.32700        0.88347
H         36.42762        1.32740       -0.88287
H         37.44363       -0.96761       -0.89111
H         37.44358       -0.96789        0.89092
H         33.86666        1.63577        0.88157
H         33.86671        1.63615       -0.88112
H         31.59657        1.03955       -0.00002
H         32.27555       -0.34271       -0.88903
H         32.27538       -0.34312        0.88848
H         40.72387        0.28847        0.00022
H         39.90088       -1.02918        0.89567
H         39.90092       -1.02886       -0.89575
