12
METHYL_ETHYL_SULFIDE.gamout	Energy:    -516.9750137
S          1.90111        2.50172        2.23288
C          3.62756        2.17858        1.71111
C          3.87596        0.80440        1.09641
C          1.06471        2.62196        0.61948
H          3.94412        2.98613        1.02837
H          4.21041        2.30059        2.63859
H          3.30154        0.66182        0.16693
H          4.94329        0.68051        0.84453
H          3.59121        0.00209        1.79511
H          1.08236        1.67014        0.06674
H          1.50440        3.41839       -0.00258
H          0.01674        2.88106        0.83013
