23
METHYL_HEXANOATE.gamout	Energy:    -425.0675984
C          1.28962        0.15192        0.24755
C          2.77616        0.51353        0.21465
C          3.45776        0.44567        1.58578
C          4.95156        0.78684        1.54785
C          5.63263        0.69482        2.91237
C          7.10200        1.06119        2.88282
O          7.64723        0.92859        4.11196
O          7.71367        1.42361        1.90843
C          9.03133        1.23678        4.27303
H          0.83958        0.21395       -0.75584
H          0.72362        0.83018        0.90884
H          1.13382       -0.87523        0.61937
H          2.89899        1.52962       -0.20306
H          3.30222       -0.16123       -0.48569
H          3.32082       -0.56752        2.00963
H          2.94007        1.13121        2.28382
H          5.09523        1.80286        1.14243
H          5.47103        0.11474        0.84308
H          5.55435       -0.32267        3.33474
H          5.14636        1.35088        3.65666
H          9.42362        1.72763        3.37206
H          9.58919        0.30542        4.46070
H          9.13263        1.89767        5.14664
