18
METHYL_FUMARATE.gamout	Energy:    -533.6702948
C          2.55730        1.47333       -0.00012
C          1.39604        0.54468       -0.00012
O          0.23947        1.23107       -0.00010
O          1.46245       -0.66261       -0.00011
C          3.81278        1.00654       -0.00012
C         -0.95379        0.44915       -0.00005
C          4.97413        1.93472       -0.00011
O          6.13024        1.24768       -0.00010
O          4.90825        3.14202       -0.00011
C          7.32363        2.02912       -0.00005
H          2.36223        2.54861       -0.00012
H          4.00762       -0.06879       -0.00012
H         -1.78688        1.16311        0.00012
H         -0.99952       -0.19270       -0.89337
H         -0.99931       -0.19285        0.89316
H          8.15654        1.31495        0.00010
H          7.36957        2.67098       -0.89335
H          7.36938        2.67109        0.89317
