15
METHYLCYCLOBUTANE.gamout	Energy:    -196.2425238
C          0.97897        0.97355        1.75202
C          1.99707        1.92496        1.14866
C          3.44164        1.95756        1.72054
C          1.89398        3.44406        1.45741
C          3.44033        3.49629        1.53719
H         -0.02817        1.14654        1.33655
H          0.91468        1.10087        2.84657
H          1.24483       -0.07844        1.55362
H          2.04161        1.77749        0.05450
H          4.21662        1.37177        1.20052
H          3.45159        1.67781        2.78776
H          1.43102        3.61628        2.44396
H          1.38894        4.08805        0.71956
H          3.88847        3.79288        0.57509
H          3.89238        4.10773        2.33351
