19
METHYL_ISOBUTYL_KETONE.gamout	Energy:    -310.6658502
C          2.40037        2.95879        2.45554
C          2.09853        1.47937        2.18217
C          3.87491        3.34533        2.40421
C          2.37008        1.11073        0.71978
C          0.66129        1.13172        2.58290
C          4.18307        4.83257        2.43648
O          4.75803        2.51713        2.35436
H          1.83279        3.61350        1.76724
H          2.04584        3.23844        3.46647
H          2.78933        0.88946        2.80945
H          2.19873        0.03634        0.54419
H          1.70318        1.66848        0.03813
H          3.41121        1.33090        0.44338
H         -0.07101        1.71316        1.99512
H          0.45049        0.06434        2.40895
H          0.47253        1.33941        3.64914
H          5.26867        4.98523        2.49276
H          3.68859        5.31819        3.29424
H          3.78976        5.31717        1.52653
