15
METHYL_N-PROPYL_SULFIDE.gamout	Energy:    -556.2309266
C         51.98329       10.02927        0.00007
C         50.66487        9.25348       -0.00002
S         50.97997        7.44714        0.00021
C         51.77397       11.54526       -0.00008
C         49.26783        6.82903        0.00010
H         52.57402        9.73251        0.88426
H         52.57422        9.73237       -0.88395
H         50.06739        9.51335       -0.89164
H         50.06721        9.51354        0.89142
H         52.73746       12.07985       -0.00003
H         51.21144       11.87483       -0.88986
H         51.21125       11.87497        0.88954
H         49.32322        5.73047        0.00026
H         48.72044        7.15431        0.89931
H         48.72069        7.15405       -0.89937
