17
METHYL_N-BUTYRATE.gamout	Energy:    -346.5558827
C          0.57234        0.13557       -0.00024
C         -0.76368       -0.57697       -0.00059
C         -1.95742        0.37516        0.00084
C         -3.30198       -0.35155        0.00023
O          0.73113        1.33186       -0.00104
O          1.59363       -0.74412        0.00075
C          2.90477       -0.18188        0.00018
H         -0.78155       -1.24830       -0.87805
H         -0.78102       -1.25059        0.87510
H         -1.88153        1.03826        0.87866
H         -1.88177        1.04025       -0.87549
H         -3.41601       -0.99382       -0.88970
H         -3.41582       -0.99579        0.88877
H         -4.13825        0.36501        0.00112
H          3.06309        0.44346       -0.89225
H          3.06311        0.44521        0.89135
H          3.60353       -1.02786        0.00099
