27
METHYLCYCLOOCTANE.gamout	Energy:    -353.2877788
C          3.91438        4.29439        2.44925
C          4.69174        3.96139        1.17077
C          4.86200        2.47491        0.80741
C          2.42769        3.92154        2.50576
C          2.03945        2.42888        2.44198
C          2.92956        1.51490        3.31827
C          0.55667        2.27478        2.81111
C          4.04654        0.74840        2.59184
C          5.21604        1.53008        1.97339
H          4.43413        3.85122        3.31612
H          3.98686        5.38445        2.60641
H          4.23053        4.48411        0.31340
H          5.69739        4.40621        1.28111
H          3.95810        2.09986        0.29815
H          5.65816        2.41739        0.04686
H          2.02820        4.32886        3.45321
H          1.88644        4.45627        1.70376
H          2.13861        2.08752        1.39687
H          3.35487        2.09155        4.16025
H          2.28510        0.75524        3.79132
H          0.21147        1.23832        2.66411
H          0.37989        2.53664        3.86948
H         -0.08349        2.93006        2.19755
H          4.47155        0.02493        3.30794
H          3.58308        0.13478        1.79517
H          5.75449        2.08802        2.76172
H          5.93931        0.78154        1.60982
