35
METHYL_DECANOATE.gamout	Energy:    -582.0911276
O         -4.36400        0.51165        0.62267
O         -4.94689       -1.45457       -0.32620
C          2.31082       -0.44733        0.37387
C          0.91400       -0.00766       -0.08321
C          3.45391        0.38677       -0.21940
C         -0.23051       -0.83596        0.51616
C          4.85136       -0.04143        0.24440
C         -1.62444       -0.38138        0.06942
C          5.98951        0.79884       -0.34614
C         -2.76025       -1.21544        0.68516
C          7.38009        0.37101        0.12615
C         -4.14239       -0.77148        0.25753
C         -5.62160        1.10235        0.30016
H          2.36086       -0.39900        1.47822
H          2.46433       -1.51237        0.11561
H          0.76461        1.05681        0.17926
H          0.85805       -0.05282       -1.18726
H          3.29684        1.45123        0.03956
H          3.40522        0.33932       -1.32384
H         -0.08632       -1.90129        0.25478
H         -0.17443       -0.78919        1.62025
H          5.01497       -1.10563       -0.01216
H          4.89904        0.00888        1.34900
H         -1.69694       -0.43099       -1.03231
H         -1.77601        0.67692        0.34110
H          5.94296        0.74910       -1.44988
H          5.82444        1.86185       -0.08924
H         -2.71590       -1.14197        1.78647
H         -2.66759       -2.27753        0.41566
H          7.47334        0.44788        1.22302
H          8.16721        1.00017       -0.31872
H          7.59668       -0.67557       -0.14884
H         -5.44289        1.98410       -0.33457
H         -6.10576        1.42554        1.23457
H         -6.25945        0.38007       -0.22667
