27
METHYL_FERULATE.gamout	Energy:    -726.3193368
C          1.19457        0.01585       -0.08771
C          0.31809        1.04555       -0.03819
C          2.65159        0.12790       -0.17183
C         -1.16469        1.12730        0.05023
C          3.31993        1.37394       -0.21101
C          3.42496       -1.04400       -0.21427
O         -1.98180        0.04405        0.10315
O         -1.69121        2.21641        0.07930
C          4.70319        1.42877       -0.28863
C          4.81812       -0.99435       -0.29266
C         -1.58317       -1.31030        0.08244
O          5.46257        2.56178       -0.33180
C          5.47012        0.23605       -0.33030
C          4.82306        3.81973       -0.29708
O          6.81357        0.30744       -0.40529
H          0.83984       -1.01347       -0.06489
H          0.70639        2.06681       -0.06312
H          2.74278        2.29682       -0.17893
H          2.92687       -2.01630       -0.18507
H          5.41998       -1.90394       -0.32547
H         -2.51040       -1.89767        0.14262
H         -0.95230       -1.57441        0.94805
H         -1.06477       -1.57987       -0.85305
H          5.61577        4.57862       -0.33937
H          4.24460        3.95470        0.63442
H          4.14701        3.95533       -1.16008
H          7.04849        1.25000       -0.41925
