12
METHYLCYCLOPROPANE.gamout	Energy:    -156.9832054
C          1.95811        1.47907        1.71200
C          3.11159        2.12936        0.99029
C          3.06914        0.62795        1.15045
C          0.57971        1.45201        1.08992
H          1.95881        1.59517        2.80280
H          2.92247        2.54359       -0.00575
H          3.84482        2.69355        1.57427
H          3.77319        0.15931        1.84441
H          2.85090        0.02491        0.26289
H          0.63993        1.33381       -0.00505
H         -0.02225        0.61444        1.48111
H          0.02924        2.38603        1.29309
