8
METHYL_NITRATE.gamout	Energy:    -319.8001324
O          1.98224        1.50538        1.73409
C          0.76090        1.08874        1.12571
N          3.13852        1.08680        1.04264
O          2.97379        0.44079        0.03779
O          4.15133        1.44461        1.56911
H         -0.01392        1.49702        1.78722
H          0.65334        1.50293        0.11197
H          0.68574       -0.00826        1.08337
