53
METHYL_LINOLENATE.gamout	Energy:    -892.4609185
O          4.05763       -0.91060        1.43243
O          5.05368       -1.26636       -0.55022
C         -0.96137       -1.78781       -0.28127
C         -2.29640       -1.32959       -0.88281
C          0.23677       -0.91995       -0.68911
C         -3.49712       -2.19222       -0.47598
C          1.56833       -1.37529       -0.08058
C         -4.83135       -1.72220       -1.06880
C          2.75697       -0.49326       -0.49983
C         -6.01371       -2.57046       -0.66601
C          4.08206       -0.93338        0.08299
C         -7.28452       -2.35317       -1.03491
C         -7.75458       -1.21646       -1.91059
C         -9.24173       -1.18749       -2.16702
C         -9.88094       -0.26127       -2.89661
C         -9.22134        0.91103       -3.58371
C          5.25766       -1.31068        2.08867
C        -10.17378        1.82122       -4.33478
C         -9.82421        2.92160       -5.01343
C        -10.76618        3.82590       -5.76092
C        -10.44724        3.92952       -7.25981
H         -1.04313       -1.79714        0.82197
H         -0.76851       -2.83674       -0.57598
H         -2.21490       -1.31776       -1.98626
H         -2.48770       -0.28081       -0.58588
H          0.32277       -0.91116       -1.79199
H          0.04361        0.12920       -0.39484
H         -3.57997       -2.20830        0.62693
H         -3.31547       -3.24108       -0.77692
H          1.49629       -1.37705        1.02014
H          1.77231       -2.41985       -0.37899
H         -4.75388       -1.69313       -2.17387
H         -5.01292       -0.67006       -0.77189
H          2.57426        0.54644       -0.17469
H          2.87934       -0.48663       -1.59271
H         -5.80668       -3.42876       -0.01610
H         -8.05211       -3.04587       -0.67083
H         -7.21091       -1.24267       -2.87812
H         -7.43993       -0.25113       -1.46196
H         -9.83801       -1.98675       -1.71264
H        -10.96790       -0.35065       -3.00397
H         -8.65829        1.50314       -2.83487
H         -8.44162        0.53817       -4.27725
H          6.09696       -0.65527        1.80816
H          5.06101       -1.23386        3.16569
H          5.52673       -2.34528        1.82452
H        -11.23679        1.54414       -4.30712
H         -8.76138        3.20549       -5.04687
H        -10.72063        4.84062       -5.32090
H        -11.80357        3.47564       -5.62130
H        -10.51413        2.94502       -7.75063
H         -9.42765        4.31604       -7.42635
H        -11.14809        4.61115       -7.76763
