10
METHYL_VINYL_ETHER.gamout	Energy:    -192.8525813
O          1.95447        1.21050        1.17739
C          2.33936        2.41232        0.68729
C          3.60035        2.68370        0.33852
C          0.56528        0.98546        1.26092
H          1.54432        3.16898        0.61452
H          4.38256        1.92436        0.41302
H          3.86339        3.68103       -0.01588
H          0.05803        1.76932        1.85515
H          0.09480        0.94092        0.26057
H          0.42076        0.01778        1.76107
