15
METHYL_METHACRYLATE.gamout	Energy:    -345.3340669
C         -0.71637        0.85545       -0.03871
C          0.45194        1.50788       -0.13828
C          1.67541        0.82260       -0.65998
C          0.65020        2.94849        0.24384
O          1.47749       -0.47456       -0.96599
O          2.74446        1.37441       -0.79767
C          2.60536       -1.17437       -1.48279
H         -0.80442       -0.19263       -0.32789
H         -1.61181        1.36097        0.33354
H         -0.29403        3.40405        0.57306
H          1.05281        3.52643       -0.60356
H          1.39059        3.04144        1.05584
H          2.27322       -2.20546       -1.65908
H          3.44116       -1.16058       -0.76594
H          2.95209       -0.72011       -2.42418
