44
METOPROLOL.gamout	Energy:    -865.8719364
O         -0.50896       -1.61799       -0.71014
O         -2.05299        0.00888       -2.64660
O          5.77721       -0.24316       -0.79281
N         -2.88310        1.74952        0.54000
C         -1.89239        0.34531       -1.28243
C         -3.07454        1.19792       -0.79413
C         -3.62806        2.97738        0.84994
C         -1.68234       -0.89594       -0.40879
C         -3.00048        4.19065        0.16039
C         -3.65381        3.16743        2.36597
C          0.69041       -1.23555       -0.18544
C          3.28068       -0.67047        0.81033
C          4.66464       -0.34821        1.32222
C          0.89445       -0.13816        0.66256
C          1.78474       -2.04053       -0.53580
C          2.18122        0.12336        1.14974
C          3.05515       -1.75869       -0.04851
C          5.49893        0.50036        0.36602
C          6.43727        0.48570       -1.78859
H         -0.98600        0.96941       -1.23483
H         -3.17014        2.02057       -1.51734
H         -4.01233        0.60088       -0.88908
H         -4.68394        2.89745        0.50108
H         -3.11720        1.04927        1.24142
H         -2.51591       -1.59987       -0.58792
H         -1.70947       -0.62554        0.66160
H         -2.99405        4.08474       -0.93513
H         -1.95750        4.31988        0.49188
H         -3.56587        5.10610        0.39750
H         -2.62855        3.24975        2.76318
H         -4.20811        4.07750        2.64022
H         -4.14474        2.31560        2.86615
H          4.59202        0.19526        2.27817
H          5.22193       -1.27839        1.52382
H         -2.77219       -0.63407       -2.72073
H          2.32447        0.98076        1.81427
H          3.89675       -2.38980       -0.34176
H          0.07538        0.52511        0.94327
H          1.60437       -2.88735       -1.20018
H          4.94887        1.43154        0.11066
H          6.44283        0.80976        0.86432
H          7.42146        0.86709       -1.44385
H          6.60287       -0.18488       -2.64476
H          5.83985        1.35513       -2.13269
