16
MMIM+1.gamout	Energy:    -304.8172148
C          2.47977        0.56277        0.00672
N          1.08918        0.09871        0.00463
C         -0.00058        0.87643       -0.00954
N         -1.08929        0.09738       -0.00176
C         -0.68285       -1.22177        0.01793
C          0.68364       -1.22095        0.02215
C         -2.47973        0.55957       -0.02195
H          2.97566        0.25071        0.93678
H          3.01091        0.13957       -0.85757
H          2.49218        1.65742       -0.06138
H         -0.00157        1.96504       -0.02515
H         -1.38975       -2.04796        0.02696
H          1.39161       -2.04611        0.03655
H         -2.96874        0.22911       -0.94931
H         -3.01664        0.15192        0.84613
H         -2.49380        1.65505        0.02632
