21
MMPYR+1.gamout	Energy:    -291.1668569
N          0.41801       -0.55407       -0.08958
C         -0.42898        0.10885       -1.19068
C          1.48767        0.48592        0.29130
C          1.43459        1.54386       -0.80303
H          2.45216       -0.02494        0.40439
H          1.19919        0.90446        1.26471
C         -0.05542        1.58477       -1.15437
H         -1.48722       -0.11418       -1.00498
H         -0.13850       -0.35310       -2.14392
H         -0.62734        2.11961       -0.37835
H         -0.26775        2.07459       -2.11457
H          2.03560        1.24183       -1.67626
H          1.82974        2.50570       -0.44896
C         -0.42858       -0.88923        1.09845
H         -0.96463        0.01087        1.42241
H          0.21692       -1.24881        1.90960
H         -1.14618       -1.67136        0.82070
C          1.05902       -1.80274       -0.60776
H          1.74030       -1.54359       -1.42711
H          0.27894       -2.48138       -0.97535
H          1.61725       -2.28365        0.20477
