8
MONOBROMOACETIC_ACID.gamout	Energy:   -2801.9187475
O          1.94651        1.74450        0.01037
C          1.32444        0.56784       -0.05881
O          0.12898        0.46355       -0.05336
C          2.16994       -0.70763       -0.15038
Br         4.12448       -0.46199       -0.15094
H          2.91191        1.61261       -0.00843
H          1.92614       -1.35220        0.70341
H          1.90995       -1.23361       -1.07751
