8
MONOFLUOROACETIC_ACID.gamout	Energy:    -327.9119347
C         34.97455       29.99786        0.00008
C         33.60273       29.34428       -0.00035
O         33.73764       28.00292       -0.00001
O         32.54999       29.91838       -0.00029
F         34.86108       31.35490        0.00026
H         35.52869       29.65806        0.89346
H         35.52943       29.65839       -0.89297
H         32.84147       27.62380       -0.00001
