15
MPY+1.gamout	Energy:    -287.5793626
N          0.04755        1.18380        0.64140
C          0.53448        2.27294        1.27785
C          0.10463        3.54682        0.93699
C         -0.84451        3.69842       -0.07550
C         -0.87222        1.31201       -0.34408
C         -1.33694        2.56038       -0.72233
H          1.27096        2.09354        2.06134
H          0.51660        4.40674        1.46681
H         -1.19753        4.69244       -0.35872
H         -2.07865        2.63355       -1.51878
H         -1.21714        0.38829       -0.81044
C          0.50053       -0.17109        1.02496
H          1.32917       -0.08616        1.73655
H          0.84261       -0.70916        0.13032
H         -0.33183       -0.71651        1.49284
