33
MYRICETIN.gamout	Energy:   -1177.9313983
O         -0.49685       -0.72866       -0.18731
O          0.36268        2.69836        0.72378
O         -4.61464        1.62509        0.40840
O         -2.33798        2.78069        0.76971
O         -4.56272       -2.95379       -0.92481
O          3.98955       -2.04119       -1.83479
O          4.87212        1.05833        1.68817
O          5.77046       -0.78425       -0.21397
C         -2.52138        0.50847        0.13087
C          0.25438        0.35741        0.15210
C         -1.84983       -0.68124       -0.20622
C          1.69771        0.07352        0.09105
C         -0.32318        1.56518        0.45296
C         -1.78451        1.70611        0.47956
C         -3.94850        0.51649        0.10236
C         -2.52605       -1.84350       -0.56048
C          2.60884        0.71723        0.95312
C          2.17066       -0.87453       -0.83274
C         -3.92611       -1.81340       -0.57900
C         -4.63511       -0.64583       -0.25135
C          3.53360       -1.15531       -0.92407
C          3.96943        0.42593        0.86676
C          4.43796       -0.49198       -0.07731
H         -1.98546       -2.75331       -0.81348
H          2.27967        1.38883        1.74620
H          1.48479       -1.39197       -1.50175
H         -5.72661       -0.62023       -0.26711
H          1.29588        2.57554        0.49523
H         -3.92213        2.31874        0.61714
H         -5.51800       -2.80893       -0.89933
H          4.95720       -2.06598       -1.76578
H          5.41668        0.38797        2.12802
H          6.28398        0.00665        0.01332
