30
N,N-DIBUTYLFORMAMIDE.gamout	Energy:    -483.7236511
C         -1.35201       -0.82273       -0.68095
C         -1.96222        0.34365        0.10702
C         -3.41877        0.61467       -0.27720
C         -4.05234        1.76590        0.50426
N          0.00983       -1.18209       -0.31891
C          0.26218       -2.30420        0.41784
O          1.36493       -2.69731        0.74207
C          1.14577       -0.41415       -0.81757
C          1.65795        0.67689        0.13260
C          2.89432        1.39449       -0.41507
C          3.40489        2.51338        0.49395
H         -1.97866       -1.71827       -0.53251
H         -1.38557       -0.59904       -1.76323
H         -1.89307        0.11561        1.18603
H         -1.36416        1.25781       -0.05210
H         -3.47651        0.82881       -1.36040
H         -4.01211       -0.30560       -0.12355
H         -4.05350        1.56476        1.58894
H         -3.50442        2.71037        0.34607
H         -5.09617        1.93240        0.19624
H         -0.67696       -2.84258        0.69546
H          1.96251       -1.12959       -1.00162
H          0.85827        0.02778       -1.78719
H          0.85778        1.41224        0.32570
H          1.89886        0.20701        1.10139
H          3.70026        0.65576       -0.57595
H          2.66421        1.81020       -1.41406
H          4.29818        2.99701        0.06871
H          2.64153        3.29667        0.63950
H          3.67838        2.12980        1.49140
