15
N,N-DIMETHYLACETAMIDE.gamout	Energy:    -287.4411494
C         -1.92607       -0.29732       -0.02169
C         -0.57184        0.40198       -0.00903
N          0.58497       -0.34848        0.01351
O         -0.54302        1.62347       -0.00876
C          1.85929        0.34886        0.00173
C          0.68827       -1.79185        0.02873
H         -1.93080       -1.38348       -0.16608
H         -2.51890        0.17110       -0.82070
H         -2.43347       -0.06367        0.92764
H          1.66664        1.42736       -0.00981
H          2.44894        0.07060       -0.89083
H          2.45321        0.09104        0.89724
H         -0.29137       -2.27077        0.11091
H          1.29906       -2.12761        0.88720
H          1.17792       -2.16924       -0.88956
