21
N,N-DIETHYLACETAMIDE.gamout	Energy:    -365.9590351
C          0.38980       -1.47374        0.65465
C          1.04558       -2.21371       -0.51571
N          0.10908       -0.06395        0.41595
C         -1.10826        0.42271       -0.00199
C         -2.24862       -0.56926       -0.19607
O         -1.27781        1.61696       -0.20222
C          1.18351        0.91067        0.61697
C          1.86817        1.38076       -0.66858
H         -0.54387       -1.98160        0.93317
H          1.04370       -1.54108        1.54135
H          0.41945       -2.16457       -1.42105
H          2.03051       -1.78835       -0.76437
H          1.19385       -3.27552       -0.25985
H         -2.55951       -1.01961        0.76125
H         -3.09608       -0.00739       -0.60710
H         -1.98923       -1.38816       -0.88471
H          0.75232        1.78498        1.12760
H          1.91946        0.45262        1.29774
H          2.32743        0.54612       -1.22140
H          1.13860        1.87873       -1.32396
H          2.66267        2.10668       -0.42923
