22
N,N-DIMETHYLBUTYLAMINE.gamout	Energy:    -291.9906775
N          0.18572        1.97537        0.25096
C          0.44874       -0.49586       -0.10154
C         -0.47508        0.72504       -0.09264
C         -0.30171       -1.80964       -0.34062
C          0.60814       -3.03891       -0.34802
C         -0.75776        3.02004        0.59003
C          1.14360        2.42021       -0.73923
H          0.98166       -0.53491        0.86536
H          1.22475       -0.38338       -0.87916
H         -1.00085        0.79495       -1.07794
H         -1.26293        0.55590        0.66106
H         -0.84624       -1.75156       -1.30110
H         -1.07701       -1.93363        0.43782
H          0.03289       -3.96318       -0.51768
H          1.37052       -2.97266       -1.14288
H          1.14178       -3.15176        0.61114
H         -1.41122        2.69291        1.41485
H         -1.41520        3.32093       -0.26090
H         -0.22029        3.92086        0.92757
H          0.68583        2.61587       -1.73909
H          1.62204        3.35389       -0.40390
H          1.94262        1.67698       -0.87617
