12
N,N-DIMETHYLFORMAMIDE.gamout	Energy:    -248.1833856
O         -0.18967       -0.18982       -0.01128
N          2.07579        0.02603       -0.33166
C          3.27587        0.77693       -0.04764
C          2.18725       -1.14462       -1.17639
C          0.85982        0.38923        0.17662
H          3.76347        1.12383       -0.97694
H          3.02538        1.65973        0.55878
H          4.01286        0.17158        0.51274
H          2.50034       -0.87073       -2.20055
H          2.92787       -1.85612       -0.76973
H          1.20309       -1.62805       -1.21977
H          0.93832        1.30695        0.81027
