26
N,N-BIS(2-HYDROXYETHYL)ETHYLENEDIAMINE.gamout	Energy:    -497.5066409
O         -2.90608       -1.96975       -1.20076
O         -0.19346        3.53444        0.38292
N          0.17954       -0.06186       -0.55640
N          3.46537       -1.87780       -0.27127
C          1.34501       -0.84770       -0.94388
C         -1.05452       -0.49027       -1.20249
C          0.38869        1.37731       -0.60718
C          2.36838       -1.02682        0.18020
C         -1.71716       -1.67040       -0.49868
C         -0.37922        2.13772        0.47822
H          1.84945       -0.40915       -1.83685
H          1.01860       -1.85290       -1.24863
H         -0.90222       -0.75259       -2.27206
H         -1.77725        0.33981       -1.19378
H          0.12457        1.81175       -1.59707
H          1.46383        1.57956       -0.46221
H          1.85995       -1.51889        1.02628
H          2.69084       -0.02887        0.55289
H         -1.90725       -1.38590        0.55607
H         -1.02566       -2.53825       -0.47848
H         -0.09327        1.73478        1.47079
H         -1.46317        1.96861        0.36870
H          4.10918       -2.07348        0.49534
H          4.01613       -1.39611       -0.98407
H         -3.33955       -2.71912       -0.77421
H          0.73835        3.72804        0.55082
