26
N,N-DIETHYLANILINE.gamout	Energy:    -444.2272394
C          5.61104        4.95681       -1.33773
C          6.20781        3.85314       -2.22101
N          6.92111        2.79614       -1.51983
C          8.36694        2.92258       -1.40875
C          6.24183        1.73183       -0.93573
C          8.88117        3.54347       -0.10315
C          6.92683        0.69712       -0.24982
C          4.83051        1.61686       -1.00866
C          6.24281       -0.38673        0.29913
C          4.85365       -0.49186        0.20563
C          4.16167        0.52660       -0.45267
H          5.05872        5.68250       -1.95768
H          4.91048        4.54511       -0.59475
H          6.39496        5.50586       -0.79298
H          6.91662        4.30227       -2.93469
H          5.41067        3.40673       -2.83984
H          8.83146        1.93302       -1.55373
H          8.70602        3.53374       -2.26036
H          9.98360        3.56069       -0.09698
H          8.52631        4.57916        0.01799
H          8.54596        2.96872        0.77437
H          8.00950        0.73112       -0.13767
H          4.23761        2.38530       -1.50240
H          6.81604       -1.16202        0.81494
H          4.32409       -1.34091        0.64166
H          3.07226        0.48049       -0.53688
