23
N,N-DIMETHYL-P-TOLUIDINE.gamout	Energy:    -404.9714816
C          6.62742        4.17659       -1.39130
N          7.16757        2.94518       -0.86013
C          8.59840        2.74322       -0.91247
C          6.32412        1.86728       -0.61849
C          6.82855        0.59370       -0.26347
C          4.91812        1.98652       -0.72298
C          5.97183       -0.47388        0.00060
C          4.08067        0.90453       -0.45529
C          4.57872       -0.35015       -0.08121
C          3.66143       -1.50354        0.23567
H          7.42050        4.93580       -1.42316
H          6.21334        4.07163       -2.41592
H          5.82327        4.57500       -0.74964
H          9.09647        3.71605       -1.01895
H          8.97642        2.28563        0.01747
H          8.92248        2.09901       -1.75636
H          7.90254        0.42417       -0.19802
H          4.46469        2.92933       -1.02585
H          6.40940       -1.44029        0.27012
H          2.99946        1.04451       -0.55154
H          4.12016       -2.46993       -0.02776
H          3.41240       -1.54637        1.31172
H          2.71102       -1.42483       -0.31500
