30
N-ACETYL-D-GLUCOSAMINE.gamout	Energy:    -818.9111774
C          2.15815        1.10702       -0.11798
C          3.52091        1.80618       -0.38393
C          2.24001        0.26551        1.15325
N          1.03716        2.00899       -0.11849
C          4.04371        2.61094        0.82776
O          4.48800        0.86907       -0.80340
C          4.90055        3.80765        0.40514
O          2.91951        3.02342        1.59393
C          6.23360        3.42319       -0.25217
O          4.16516        4.63344       -0.46150
O          6.85715        4.58676       -0.77824
O          3.22165       -0.37768        1.45085
C         -0.14885        1.91964       -0.80403
O         -1.00883        2.77165       -0.67405
C         -0.34127        0.72202       -1.72285
H          2.05505        0.39390       -0.95036
H          3.35331        2.50264       -1.21649
H          1.32649        0.27920        1.79887
H          1.13184        2.82406        0.48143
H          4.68029        1.93535        1.43257
H          4.52612        0.18758       -0.10944
H          5.14603        4.36322        1.34527
H          3.19858        3.65560        2.26911
H          6.05894        2.74940       -1.10287
H          6.88434        2.88946        0.46491
H          4.82972        5.13626       -0.96128
H          7.20539        5.10861       -0.04198
H          0.40261        0.70485       -2.53634
H         -1.34271        0.80501       -2.16162
H         -0.26744       -0.23305       -1.17767
