60
N-BENZYL-N,N-DIMETHYLDODECANAMINIUM+1.gamout	Energy:    -876.4144866
N          0.87623        3.85773       -2.06060
C          0.09280        2.54761       -2.10965
C          0.27280        1.62367       -0.90772
C          0.62718        4.59600       -3.39781
C         -0.54168        0.32232       -1.00631
C          0.41290        4.69824       -0.91443
C          2.33612        3.58685       -1.90053
C         -0.27290       -0.56373        0.21966
C         -0.98543       -1.92217        0.24301
C         -0.62440       -2.74449        1.49006
C          1.24735        5.96077       -3.51534
C         -1.31369       -4.11240        1.58384
C         -0.93661       -4.91170        2.84016
C         -1.64369       -6.27047        2.94888
C          2.58746        6.11413       -3.90799
C          0.48224        7.10943       -3.25826
C         -1.28294       -7.07922        4.20172
C         -2.00242       -8.43132        4.28929
C          3.16310        7.38191       -3.98508
C          1.05437        8.37868       -3.34750
C          2.40022        8.51624       -3.69621
C         -1.64685       -9.24552        5.53436
H          0.40596        2.04736       -3.03770
H         -0.96101        2.83815       -2.23022
H          1.33394        1.34712       -0.80046
H         -0.01536        2.14154        0.02142
H          1.00357        3.91115       -4.16929
H         -0.46447        4.65045       -3.49242
H         -0.27339       -0.21730       -1.93255
H         -1.61955        0.55478       -1.08180
H         -0.67140        4.84563       -0.99122
H          0.92290        5.66587       -0.95665
H          0.65557        4.19156        0.02383
H          2.67793        2.95877       -2.73237
H          2.50477        3.07121       -0.95165
H          2.87682        4.53813       -1.90111
H         -0.54755        0.00173        1.12964
H          0.81743       -0.73463        0.29468
H         -0.72294       -2.49315       -0.66688
H         -2.07991       -1.76884        0.20236
H          0.47247       -2.88902        1.51838
H         -0.86971       -2.15347        2.39279
H         -1.06745       -4.70798        0.68476
H         -2.41035       -3.96938        1.55867
H          0.15900       -5.06709        2.85833
H         -1.16727       -4.30763        3.73832
H         -2.73819       -6.11007        2.92491
H         -1.41077       -6.87257        2.05027
H          3.18764        5.23959       -4.16973
H         -0.57487        7.01353       -2.99745
H         -1.51753       -6.48238        5.10381
H         -0.18920       -7.24625        4.22925
H         -3.09482       -8.26181        4.26061
H         -1.76892       -9.02400        3.38534
H          4.20822        7.48581       -4.28358
H          0.44669        9.26366       -3.15060
H          2.85047        9.50881       -3.75908
H         -2.18028      -10.20900        5.54445
H         -0.56640       -9.46450        5.57917
H         -1.91419       -8.70844        6.46021
