23
N-BUTYL_PROPIONATE.gamout	Energy:    -425.0735455
O          2.47681       -0.15219       -2.47915
C          2.01299        0.27901       -1.29078
C          1.12621        1.49532       -1.46214
O          2.28221       -0.25143       -0.24034
C          3.31524       -1.31688       -2.46822
C          0.56728        2.02414       -0.14620
C          3.71867       -1.61607       -3.90111
C          4.61065       -2.85429       -4.02314
C          5.02013       -3.16537       -5.46342
H          1.72081        2.25961       -1.99261
H          0.32341        1.21965       -2.16772
H          4.18980       -1.12900       -1.82224
H          2.75938       -2.15640       -2.01621
H         -0.06673        2.90607       -0.32077
H         -0.03744        1.25822        0.36288
H          1.37774        2.30791        0.54176
H          2.80232       -1.74735       -4.50352
H          4.23566       -0.73230       -4.31576
H          5.51626       -2.71675       -3.40448
H          4.08413       -3.72655       -3.59413
H          5.65773       -4.06168       -5.51265
H          4.13935       -3.34770       -6.10228
H          5.58498       -2.32985       -5.91059
