13
N-BUTYRALDEHYDE.gamout	Energy:    -232.1399832
C          1.49352        2.86735        2.13081
C          0.97522        1.98148        3.26427
C          1.72763        2.11097        0.81407
C          2.85761        1.11071        0.88953
O          2.80663       -0.02961        0.50425
H          2.43539        3.35857        2.43771
H          0.77893        3.68536        1.94076
H          1.68663        1.17685        3.51684
H          0.02176        1.49965        2.99002
H          0.80209        2.56806        4.18034
H          2.01161        2.83560        0.02651
H          0.82150        1.58663        0.46905
H          3.80621        1.52077        1.33949
