26
N-BUTYL_N-BUTYRATE.gamout	Energy:    -464.3295173
C          0.52493        1.88346        0.77866
C          1.41680        0.86377        1.48877
C          2.63648        1.47858        2.17533
C          3.67729        2.00522        1.20696
O          4.56575        2.79951        1.83247
O          3.73584        1.74461        0.02901
C          5.61201        3.36160        1.02827
C          8.55124        5.71508        2.08121
C          7.65107        4.86849        1.18075
C          6.49683        4.20010        1.93225
H          0.13603        2.63867        1.48310
H          1.07811        2.40698       -0.01672
H         -0.34037        1.38967        0.30918
H          1.77022        0.11403        0.76199
H          0.82946        0.31798        2.24570
H          3.14865        0.72559        2.80114
H          2.36363        2.29498        2.86499
H          6.17658        2.54878        0.54008
H          5.16041        3.96068        0.21863
H          9.36375        6.18626        1.50574
H          7.98283        6.52151        2.57498
H          9.01670        5.10547        2.87447
H          7.23948        5.50173        0.37320
H          8.25760        4.09580        0.67349
H          6.88824        3.55420        2.73854
H          5.87502        4.96628        2.42903
