21
N-BUTYL_ETHYL_ETHER.gamout	Energy:    -311.8502261
C          1.84018        0.51569       -0.00002
C          3.17698       -0.20978        0.00007
O          2.94635       -1.59547        0.00005
C          1.97518        2.03997       -0.00002
C          4.11488       -2.37747        0.00001
C          0.62883        2.76587       -0.00016
C          3.72111       -3.84189       -0.00009
H          1.26649        0.18480       -0.88387
H          1.26635        0.18477        0.88374
H          3.77464        0.08517        0.89103
H          3.77471        0.08519       -0.89082
H          2.56192        2.35569        0.88220
H          2.56211        2.35562       -0.88215
H          4.73686       -2.14111       -0.89090
H          4.73685       -2.14119        0.89094
H          0.76077        3.85945       -0.00023
H          0.03101        2.50154       -0.88880
H          0.03086        2.50170        0.88843
H          4.61351       -4.48709       -0.00017
H          3.11833       -4.07769        0.89102
H          3.11831       -4.07753       -0.89123
