14
N-BUTANE.gamout	Energy:    -158.2192421
C          3.61509        1.12275        0.90549
C          2.57366        0.83325        1.98792
C          1.70904        2.04530        2.34951
C          0.66871        1.75556        3.43279
H          3.13826        1.45620       -0.03213
H          4.21597        0.22895        0.67221
H          4.31226        1.91802        1.22033
H          3.08024        0.46572        2.89971
H          1.91747        0.00708        1.65661
H          1.20159        2.41222        1.43795
H          2.36522        2.87185        2.67991
H         -0.02792        0.95942        3.11896
H          0.06718        2.64897        3.66558
H          1.14631        1.42331        4.37046
