24
N-BUTYLBENZENE.gamout	Energy:    -388.9580921
C          2.55143        3.41094        5.47169
C          2.15942        3.02448        4.03437
C          3.31354        3.01800        3.05368
C          1.37344        3.41285        6.45037
C          4.38694        2.12828        3.22052
C          3.34741        3.89172        1.95759
C          1.76306        3.79377        7.88005
C          5.45861        2.11402        2.32750
C          4.41797        3.88064        1.05858
C          5.47907        2.99225        1.24024
H          3.32836        2.71523        5.83699
H          3.02751        4.40852        5.45967
H          1.68994        2.02292        4.05026
H          1.37935        3.71616        3.67377
H          0.59625        4.10807        6.08215
H          0.89945        2.41347        6.45234
H          4.38148        1.43041        4.06230
H          2.52179        4.59205        1.80379
H          0.88921        3.78230        8.55044
H          2.50905        3.09387        8.29374
H          2.20215        4.80520        7.92279
H          6.28111        1.41070        2.47931
H          4.42132        4.57063        0.21116
H          6.31691        2.98067        0.53905
