12
N-BUTYRONITRILE.gamout	Energy:    -211.0863923
C          0.24674        1.62361        1.88230
C          1.77985        1.75554        1.79001
C          2.23017        2.48835        0.60219
C         -0.36221        0.76242        0.77783
N          2.56097        3.07080       -0.34367
H          0.01505        1.19333        2.87093
H         -0.19721        2.63337        1.86830
H          2.17429        2.27444        2.67959
H          2.24983        0.75639        1.77515
H          0.03794       -0.26523        0.80428
H         -1.45567        0.69787        0.88970
H         -0.15207        1.18041       -0.22031
