27
N-BUTYL_BENZOATE.gamout	Energy:    -577.3024027
O          3.73498        3.85623        4.80892
C          3.93889        3.98612        3.48500
O          3.45786        4.88175        2.82809
C          4.81396        2.91364        2.92598
C          2.90945        4.85563        5.42828
C          5.07888        2.93727        1.54892
C          5.36928        1.90234        3.72340
C          2.75018        4.51581        6.89981
C          5.88802        1.95860        0.97492
C          6.17916        0.92463        3.14568
C          2.03240        3.19437        7.20319
C          6.43875        0.95074        1.77259
C          0.56639        3.15027        6.76976
H          3.38837        5.83926        5.29859
H          1.94576        4.90092        4.89620
H          4.63745        3.73424        0.94871
H          5.16384        1.89066        4.79371
H          3.75121        4.50558        7.36390
H          2.20172        5.35298        7.36818
H          6.09164        1.97939       -0.09800
H          6.61037        0.13806        3.76881
H          2.58705        2.36839        6.72588
H          2.09329        3.01545        8.28979
H          7.07316        0.18342        1.32269
H         -0.01465        3.96699        7.23136
H          0.44889        3.23822        5.67724
H          0.09517        2.20048        7.06776
