26
N-BUTYLANILINE.gamout	Energy:    -444.2379954
C          6.52770        4.19727       -1.33856
N          7.02669        2.91532       -0.88971
C          6.22047        1.81957       -0.63621
C          7.66933        5.19531       -1.53078
C          6.80945        0.55979       -0.38160
C          4.81265        1.90856       -0.60187
C          7.19813        6.58677       -1.96146
C          6.02537       -0.55407       -0.09854
C          4.03840        0.78246       -0.31177
C          8.34395        7.57492       -2.18465
C          4.62951       -0.45570       -0.05791
H          5.95221        4.10661       -2.28575
H          5.82073        4.59524       -0.58709
H          7.98043        2.69816       -1.15473
H          8.24410        5.26734       -0.58949
H          8.36907        4.79785       -2.29117
H          7.89953        0.46744       -0.40130
H          4.31730        2.85957       -0.79928
H          6.60376        6.49808       -2.88919
H          6.50746        6.98921       -1.19827
H          6.51144       -1.51438        0.09405
H          2.94949        0.88061       -0.29078
H          7.96559        8.56180       -2.49362
H          8.93790        7.71869       -1.26603
H          9.03180        7.22046       -2.97094
H          4.01623       -1.33098        0.16522
