24
N-BUTYL_METHACRYLATE.gamout	Energy:    -463.1076976
C          0.25186        1.40925       -0.96845
C          1.07664        0.77785       -0.11892
C          1.12412       -0.71762       -0.05345
C          2.00755        1.47622        0.83201
O          1.83080       -1.32195        0.72291
O          0.31184       -1.31804       -0.94585
C          0.26425       -2.75228       -0.95204
C         -0.85130       -3.28516       -0.05867
C         -0.98026       -4.80941       -0.13627
C         -2.10647       -5.36723        0.73503
H          0.21734        2.50136       -1.00942
H         -0.40304        0.84774       -1.63558
H          1.91577        2.56812        0.74707
H          1.79871        1.17850        1.87229
H          3.05392        1.18930        0.63743
H          0.08723       -3.02986       -2.00279
H          1.24039       -3.14596       -0.63159
H         -0.65216       -2.97938        0.98312
H         -1.80373       -2.81066       -0.35547
H         -1.14792       -5.10735       -1.18784
H         -0.02120       -5.27150        0.16045
H         -2.16153       -6.46475        0.66255
H         -1.95683       -5.11092        1.79742
H         -3.08801       -4.96384        0.43342
