30
N-BUTYLCYCLOHEXANE.gamout	Energy:    -392.5609707
C         -0.91939       -0.72346       -0.26484
C         -2.10248        0.13981        0.19302
C         -3.46688       -0.41474       -0.23580
C         -4.65110        0.43156        0.23374
C          0.47264       -0.27170        0.21330
C          1.54511       -1.32776       -0.10592
C          2.94074       -0.91964        0.37682
C          3.35022        0.44205       -0.19055
C          2.29928        1.50845        0.12938
C          0.90420        1.09262       -0.35147
H         -1.08630       -1.75712        0.09155
H         -0.91904       -0.78881       -1.37046
H         -2.08221        0.22883        1.29613
H         -1.99730        1.16981       -0.19283
H         -3.49434       -0.50623       -1.33758
H         -3.57552       -1.44492        0.15103
H         -4.60077        1.45790       -0.16836
H         -5.61012       -0.00350       -0.09045
H         -4.67995        0.51136        1.33415
H          0.42917       -0.17096        1.31719
H          1.25756       -2.29451        0.34049
H          1.57138       -1.48834       -1.20103
H          2.94636       -0.87111        1.48194
H          3.67782       -1.68973        0.09624
H          4.33585        0.74340        0.20068
H          3.46161        0.35926       -1.28808
H          2.27337        1.67443        1.22281
H          2.58385        2.47268       -0.32288
H          0.89854        1.03824       -1.45748
H          0.17298        1.86849       -0.07557
