27
N-BUTYLCYCLOPENTANE.gamout	Energy:    -353.2939163
C          3.02232        4.21671        1.66236
C          4.14267        3.47551        0.91362
C          4.91298        2.41570        1.71022
C          1.84406        3.33967        2.10059
C          5.68757        2.94429        2.93513
C          6.01099        1.69840        0.90786
C          0.71447        4.12743        2.76742
C          6.81921        1.91773        3.20582
C          6.83450        0.97006        1.97857
H          3.44228        4.73192        2.54633
H          2.63944        5.01734        1.00366
H          3.71152        2.99633        0.01537
H          4.86985        4.22067        0.54070
H          4.20127        1.64245        2.05815
H          2.19737        2.55775        2.79613
H          1.44455        2.80403        1.21899
H          6.11906        3.93064        2.68712
H          5.04040        3.09499        3.81283
H          5.60905        1.02041        0.13857
H          6.63414        2.45039        0.38784
H         -0.11529        3.46741        3.06793
H          1.06615        4.65025        3.67361
H          0.30021        4.89272        2.08848
H          7.78678        2.43025        3.32637
H          6.64804        1.35677        4.13833
H          6.34570        0.01364        2.23131
H          7.85314        0.72738        1.64149
