16
N-BUTYLAMINE.gamout	Energy:    -213.4914756
C          2.05469        1.68111        1.50821
C          3.46743        1.26841        1.92647
C          4.56956        1.86117        1.04867
C          0.95703        1.09144        2.39487
N          5.88587        1.39432        1.47392
H          1.97957        2.78424        1.51416
H          1.88310        1.37530        0.45939
H          3.64336        1.57522        2.97640
H          3.56699        0.16862        1.91257
H          4.41239        1.53196        0.00534
H          4.45994        2.96980        1.03699
H          1.07618        1.40722        3.44554
H         -0.04390        1.41105        2.06393
H          0.97624       -0.01153        2.38001
H          6.61127        1.76582        0.86009
H          6.10050        1.75391        2.40602
