18
N-CAPRONITRILE.gamout	Energy:    -289.5989534
C         -0.04046       -0.06588        0.00011
C          1.26389        0.73349       -0.00010
C          1.04955        2.25167        0.00009
C          2.35310        3.05705       -0.00009
C          2.10475        4.57830        0.00014
C          3.33759        5.37065        0.00009
N          4.32140        5.98285       -0.00011
H          0.15356       -1.15012       -0.00002
H         -0.65297        0.16153        0.88912
H         -0.65336        0.16170       -0.88860
H          1.86789        0.45225       -0.88195
H          1.86831        0.45210        0.88142
H          0.44633        2.53523        0.88292
H          0.44597        2.53545       -0.88244
H          2.95947        2.79200       -0.88315
H          2.95989        2.79184        0.88264
H          1.51088        4.87072        0.88370
H          1.51063        4.87101       -0.88317
