20
N-CAPROIC_ACID.gamout	Energy:    -385.8157888
C         -1.96753        5.27319        1.75504
C         -1.05653        4.13476        1.29199
C          0.39038        4.26755        1.78117
C          1.30203        3.12768        1.31630
C          2.74471        3.25647        1.80489
C          3.64647        2.11975        1.33664
O          4.93526        2.19722        1.75156
O          3.28824        1.20372        0.65054
H         -2.01549        5.32866        2.85604
H         -1.60747        6.25077        1.39149
H         -2.99658        5.14057        1.38515
H         -1.46798        3.16905        1.63847
H         -1.06212        4.08302        0.18785
H          0.39521        4.31866        2.88689
H          0.80285        5.23488        1.43529
H          1.30701        3.07124        0.21469
H          0.90148        2.15793        1.65707
H          3.19274        4.20923        1.46306
H          2.78286        3.29013        2.91055
H          5.06855        2.98741        2.29355
