56
N-CETYL_ACETATE.gamout	Energy:    -856.8899407
C        139.14130       29.97084        0.20418
C        137.86791       29.12419        0.07328
C        138.07565       27.62991        0.35346
C        138.92333       31.46917       -0.04456
C        136.79569       26.79492        0.21243
C        140.19503       32.31795        0.08891
C        136.97278       25.28413        0.41906
C        139.97093       33.82087       -0.12650
C        137.34444       24.89725        1.84752
C        141.24115       34.67139        0.01379
O        137.28588       23.47330        2.03389
C        141.01236       36.17764       -0.17469
C        138.41479       22.76422        1.82427
C        142.28083       37.02997       -0.02775
C        138.16510       21.29168        2.03617
O        139.47058       23.25652        1.51124
C        142.04755       38.53753       -0.19836
C        143.31277       39.39211       -0.04609
C        143.07411       40.89770       -0.20782
C        144.34062       41.74130       -0.04926
H        139.57028       29.82859        1.21402
H        139.90553       29.59144       -0.50023
H        137.45065       29.24929       -0.94397
H        137.09708       29.51951        0.76195
H        138.49488       27.51029        1.36913
H        138.84387       27.23072       -0.33485
H        138.49271       31.61270       -1.05364
H        138.15958       31.84667        0.66172
H        136.37334       26.95853       -0.79438
H        136.03206       27.16923        0.92054
H        140.63522       32.15595        1.09100
H        140.95310       31.95545       -0.63109
H        136.03007       24.77051        0.16609
H        137.74311       24.89427       -0.26903
H        139.53107       33.98443       -1.12852
H        139.21208       34.18129        0.59390
H        138.35220       25.24749        2.11357
H        136.61596       25.30882        2.56358
H        141.68809       34.49340        1.01020
H        141.99585       34.32341       -0.71693
H        140.56648       36.35697       -1.17137
H        140.25651       36.52393        0.55574
H        142.73128       36.84154        0.96518
H        143.03434       36.69241       -0.76464
H        137.77290       21.11838        3.04993
H        137.40181       20.93762        1.32593
H        139.09915       20.73653        1.89072
H        141.59828       38.72688       -1.19167
H        141.29283       38.87368        0.53803
H        143.76459       39.20061        0.94580
H        144.06789       39.06276       -0.78533
H        142.62455       41.09074       -1.19949
H        142.31943       41.22720        0.53041
H        144.12668       42.81500       -0.17040
H        144.79349       41.60259        0.94736
H        145.10458       41.46851       -0.79743
