34
N-DECYLAMINE.gamout	Energy:    -449.0289148
C         70.00135       10.03611        0.00874
C         71.29377        9.20859        0.01044
C         71.06699        7.69095        0.01616
C         70.23105       11.55307        0.00199
C         72.36077        6.86558        0.01540
C         68.94164       12.38416       -0.00218
C         72.13770        5.34984        0.01514
C         69.17620       13.89897       -0.00956
C         73.43396        4.53668        0.01865
C         67.88651       14.72207       -0.01527
N         73.15462        3.10452       -0.03196
H         69.39195        9.75529       -0.87102
H         69.39319        9.76278        0.89179
H         71.90394        9.48960        0.88974
H         71.90084        9.48293       -0.87305
H         70.45691        7.40970       -0.86279
H         70.46054        7.41611        0.89989
H         70.84071       11.83318        0.88190
H         70.84017       11.82508       -0.88085
H         72.97130        7.14601        0.89450
H         72.96613        7.14149       -0.86858
H         68.33172       12.10625       -0.88275
H         68.33054       12.11501        0.88036
H         71.54453        5.04665       -0.86545
H         71.53437        5.06548        0.89919
H         69.78530       14.17729        0.87040
H         69.78673       14.16833       -0.89135
H         74.05189        4.85218        0.89024
H         74.02305        4.80132       -0.87826
H         68.09924       15.80301       -0.02063
H         67.27045       14.50104       -0.90378
H         67.26782       14.51051        0.87377
H         74.02501        2.57366       -0.07075
H         72.68615        2.80929        0.82665
