42
N-DECYLBENZENE.gamout	Energy:    -624.4957854
C          3.74287        2.65295        3.92252
C          4.16042        3.99108        3.28325
C          3.61820        4.22534        1.88837
C          4.29481        2.45930        5.34004
C          2.74031        5.28604        1.62305
C          3.98440        3.39007        0.82092
C          3.89308        1.13219        6.00021
C          2.24150        5.50658        0.33642
C          3.48834        3.60478       -0.46570
C          4.44595        0.95035        7.42021
C          2.61284        4.66567       -0.71391
C          4.05294       -0.37559        8.08759
C          4.60846       -0.54913        9.50768
C          4.22306       -1.87303       10.18139
C          4.78174       -2.03754       11.59932
C          4.39452       -3.36025       12.26461
H          4.07764        1.81922        3.27939
H          2.63947        2.59249        3.94132
H          5.26507        4.04584        3.25928
H          3.83367        4.81707        3.93729
H          5.39884        2.53218        5.31483
H          3.95666        3.29903        5.97640
H          2.44400        5.95244        2.43777
H          4.67559        2.56168        0.99713
H          4.23430        0.29243        5.36562
H          2.78950        1.05678        6.02580
H          1.55943        6.34064        0.15591
H          3.78936        2.94231       -1.28099
H          5.54946        1.02930        7.39305
H          4.10361        1.79137        8.05279
H          2.22489        4.83592       -1.72105
H          2.94967       -0.45697        8.11538
H          4.39759       -1.21665        7.45636
H          5.71160       -0.46532        9.47870
H          4.26324        0.29271       10.13763
H          4.56997       -2.71664        9.55446
H          3.12013       -1.96006       10.21366
H          4.43482       -1.19510       12.22622
H          5.88382       -1.95063       11.56799
H          4.76131       -4.22456       11.68493
H          4.81529       -3.43754       13.27955
H          3.29901       -3.46235       12.34960
