38
N-DECYL_ACETATE.gamout	Energy:    -621.3535571
C          5.46709        1.73376        1.75387
C          6.78379        1.30259        1.09928
C          4.25060        1.10587        1.09606
C          8.02804        1.91889        1.75087
O          3.08203        1.57748        1.78062
C          9.35026        1.49527        1.09767
C          1.89561        1.11469        1.34133
C         10.59497        2.10758        1.75339
C          0.75940        1.69686        2.14541
O          1.78331        0.33930        0.42427
C         11.91836        1.69002        1.09852
C         13.16331        2.29801        1.75619
C         14.48371        1.88340        1.09735
C         15.71945        2.49288        1.76177
H          5.46778        1.46304        2.82476
H          5.36499        2.83268        1.71343
H          6.76242        1.57081        0.02626
H          6.86429        0.19992        1.13130
H          4.17586        1.37203        0.02772
H          4.28003        0.00383        1.14549
H          8.04780        1.64764        2.82336
H          7.94574        3.02174        1.72325
H          9.32998        1.76952        0.02574
H          9.43175        0.39211        1.12167
H         10.51200        3.21073        1.73381
H         10.61483        1.82919        2.82430
H          0.77061        2.79518        2.06767
H         -0.19419        1.30217        1.77563
H          0.88664        1.44699        3.21012
H         11.89834        1.97099        0.02827
H         12.00084        0.58676        1.11537
H         13.18655        2.01361        2.82567
H         13.08262        3.40163        1.74297
H         14.46219        2.16930        0.02920
H         14.56610        0.78082        1.10922
H         15.69055        3.59564        1.73354
H         15.79682        2.19340        2.82107
H         16.64547        2.17266        1.25859
