32
N-DECANE.gamout	Energy:    -393.7567539
C          5.25776        1.27876        1.07781
C          6.31643        1.88845        2.00565
C          7.71376        1.27537        1.85232
C          3.86702        1.91058        1.21578
C          8.76265        1.86156        2.80489
C          2.79751        1.27849        0.31691
C         10.16548        1.26878        2.63283
C          1.41605        1.93235        0.43518
C         11.19906        1.84488        3.60208
C          0.35126        1.28425       -0.45108
H          5.18480        0.19216        1.27497
H          5.59829        1.36786        0.02863
H          5.98397        1.77967        3.05560
H          6.37458        2.97874        1.82449
H          8.05782        1.40448        0.80838
H          7.65085        0.18178        2.01074
H          3.93391        2.99293        0.99443
H          3.54016        1.84347        2.27098
H          8.42993        1.71082        3.84978
H          8.81224        2.95842        2.66430
H          3.13252        1.32322       -0.73705
H          2.71020        0.20124        0.55576
H         10.50428        1.43253        1.59281
H         10.11378        0.17122        2.75911
H          1.08872        1.89785        1.49100
H          1.49986        3.00633        0.18487
H         12.19452        1.40154        3.44079
H         11.29893        2.93745        3.48267
H         10.91718        1.65501        4.65200
H          0.20400        0.22145       -0.19329
H         -0.62221        1.78917       -0.34670
H          0.63420        1.32633       -1.51695
