33
N-DECYL_MERCAPTAN.gamout	Energy:    -791.7712952
C        103.99000       10.03228        0.00023
C        102.69518        9.20882       -0.00001
C        102.92152        7.69111        0.00023
C        103.76406       11.54982       -0.00007
C        101.62661        6.86812       -0.00004
C        105.05687       12.37568        0.00010
C        101.86096        5.35109        0.00015
C        104.82863       13.89140       -0.00019
C        100.56181        4.54519       -0.00014
C        106.12224       14.70760       -0.00003
S        100.94602        2.74277        0.00011
H        104.59659        9.75418        0.88295
H        104.59713        9.75389       -0.88204
H        102.08871        9.48664       -0.88294
H        102.08817        9.48689        0.88248
H        103.52757        7.41305        0.88310
H        103.52806        7.41282       -0.88225
H        103.15713       11.82704       -0.88293
H        103.15669       11.82741        0.88239
H        101.02042        7.14289       -0.88367
H        101.01986        7.14298        0.88319
H        105.66481       12.10012        0.88296
H        105.66531       12.09987       -0.88235
H        102.45975        5.06889        0.88506
H        102.46024        5.06871       -0.88440
H        104.22173       14.16721       -0.88260
H        104.22130       14.16754        0.88183
H         99.96131        4.78474       -0.89252
H         99.96076        4.78483        0.89186
H        105.91531       15.78962       -0.00028
H        106.73900       14.48822        0.88858
H        106.73947       14.48791       -0.88823
H         99.66355        2.31034       -0.00028
