38
N-DODECANOIC_ACID.gamout	Energy:    -621.3532162
C         -4.63449       -0.55450       -0.01462
C         -3.38085        0.31944       -0.00645
C         -2.07863       -0.48893       -0.01142
C         -0.80987        0.37366       -0.00321
C          0.49116       -0.43856       -0.00771
C          1.76502        0.41647        0.00051
C          3.06400       -0.39975       -0.00387
C          4.34010        0.45210        0.00436
C          5.63880       -0.36358       -0.00007
C          6.91215        0.48970        0.00815
C          8.20299       -0.33154        0.00344
O         -6.01159        1.43492        0.00042
O         -7.06512       -0.51443       -0.01671
C         -5.93652        0.23798       -0.00940
H         -6.84244       -1.45592       -0.02413
H         -4.64494       -1.21698       -0.90138
H         -4.64640       -1.23105        0.86145
H         -3.41509        0.99332       -0.87917
H         -3.41681        0.97934        0.87682
H         -2.06258       -1.16413        0.86550
H         -2.06069       -1.15069       -0.89847
H         -0.82319        1.04814       -0.87988
H         -0.82545        1.03447        0.88377
H          0.50149       -1.11350        0.86922
H          0.50380       -1.10042       -0.89452
H          1.75573        1.09143       -0.87621
H          1.75330        1.07797        0.88740
H          3.07197       -1.07475        0.87302
H          3.07442       -1.06166       -0.89064
H          4.33217        1.12722       -0.87237
H          4.32978        1.11380        0.89124
H          5.64912       -1.03861        0.87698
H          5.65150       -1.02536       -0.88712
H          6.90284        1.16438       -0.86799
H          6.90059        1.15081        0.89454
H          8.26611       -0.98890        0.88747
H          8.26844       -0.97512       -0.89048
H          9.09214        0.31866        0.00968
