40
N-DODECYLAMINE.gamout	Energy:    -527.5415530
N        179.99966       -0.23067        0.03707
C        179.25428        1.02352       -0.01889
C        180.20104        2.22503       -0.01092
C        179.48089        3.57677       -0.01426
C        180.42170        4.78865       -0.01475
C        179.69826        6.14160       -0.01080
C        180.63824        7.35456       -0.01155
C        179.91500        8.70771       -0.00558
C        180.85567        9.92025       -0.00550
C        180.13441       11.27450        0.00210
C        181.07601       12.48563        0.00301
C        180.35614       13.83879        0.01182
C        181.30568       15.03878        0.01300
H        179.35895       -1.02398        0.06904
H        180.54763       -0.34982       -0.81711
H        178.60504        1.07423        0.87407
H        178.57261        1.11160       -0.89557
H        180.86795        2.15996       -0.89265
H        180.85813        2.13910        0.87231
H        178.81628        3.63355        0.86837
H        178.81402        3.63413       -0.89527
H        181.08563        4.73260       -0.89817
H        181.08989        4.72923        0.86500
H        179.03485        6.19741        0.87302
H        179.02926        6.20015       -0.89030
H        181.30143        7.29942       -0.89560
H        181.30754        7.29515        0.86755
H        179.25218        8.76247        0.87877
H        179.24546        8.76725       -0.88456
H        181.51857        9.86543       -0.88980
H        181.52527        9.85937        0.87332
H        179.47197       11.32962        0.88675
H        179.46472       11.33628       -0.87662
H        181.73875       12.43261       -0.88173
H        181.74601       12.42513        0.88177
H        179.69461       13.89407        0.89619
H        179.68693       13.90181       -0.86624
H        180.75154       15.99080        0.01989
H        181.95540       15.03935       -0.87897
H        181.96335       15.03116        0.89910
