39
N-DODECYL_MERCAPTAN.gamout	Energy:    -870.2837812
C        120.98010       10.04088        0.00003
C        119.69209        9.20694       -0.00019
C        119.93286        7.69162        0.00004
C        120.74522       11.55690       -0.00017
C        118.64674        6.85379       -0.00020
C        122.03674       12.38609        0.00011
C        118.89026        5.33885        0.00011
C        121.81146       13.90317       -0.00009
C        117.60046        4.50562       -0.00020
C        123.10677       14.72374        0.00020
C        117.86049        2.99865        0.00017
C        122.87670       16.23579       -0.00001
S        116.25614        2.09257       -0.00038
H        121.58872        9.76723        0.88284
H        121.58923        9.76699       -0.88238
H        119.08279        9.47909       -0.88293
H        119.08236        9.47934        0.88219
H        120.54253        7.42060        0.88294
H        120.54300        7.42040       -0.88251
H        120.13683       11.83138       -0.88288
H        120.13640       11.83158        0.88219
H        118.03716        7.12387       -0.88321
H        118.03670        7.12409        0.88242
H        122.64409       12.10965        0.88298
H        122.64467       12.10955       -0.88235
H        119.49737        5.06636        0.88386
H        119.49789        5.06601       -0.88318
H        121.20548       14.18309       -0.88295
H        121.20501       14.18328        0.88241
H        116.99184        4.76576       -0.88517
H        116.99124        4.76601        0.88430
H        123.71196       14.44414        0.88259
H        123.71246       14.44401       -0.88183
H        118.43785        2.70760        0.89245
H        118.43862        2.70721       -0.89149
H        123.83028       16.78769        0.00025
H        122.30728       16.55809       -0.88864
H        122.30675       16.55831        0.88822
H        116.77768        0.84328        0.00013
