48
N-DODECYLBENZENE.gamout	Energy:    -703.0087289
C          4.89144        0.90643        3.22833
C          4.67615        2.41679        3.00507
C          3.21927        2.81705        2.93605
C          6.36820        0.49295        3.24802
C          2.52415        3.22357        4.08461
C          2.51318        2.74929        1.72574
C          6.60041       -1.00932        3.46740
C          1.16752        3.55118        4.02761
C          1.15689        3.07493        1.66295
C          8.08023       -1.41818        3.46621
C          0.47717        3.47686        2.81560
C          8.32511       -2.92140        3.66643
C          9.80795       -3.31908        3.64745
C         10.06590       -4.82169        3.83487
C         11.55126       -5.20946        3.80178
C         11.82109       -6.70966        3.98355
C         13.30687       -7.08550        3.94041
C         13.57068       -8.58162        4.12531
H          4.40679        0.61385        4.17780
H          4.36095        0.34734        2.43627
H          5.18256        2.71725        2.07082
H          5.17346        2.97466        3.81725
H          6.83989        0.79819        2.29437
H          6.89631        1.06234        4.03640
H          3.05638        3.29198        5.03769
H          3.03640        2.44432        0.81487
H          6.13637       -1.31359        4.42481
H          6.06657       -1.57683        2.68179
H          0.64810        3.86899        4.93501
H          0.63019        3.01898        0.70717
H          8.61490       -0.85454        4.25429
H          8.54058       -1.10183        2.51058
H         -0.58358        3.73475        2.76837
H          7.87298       -3.24138        4.62458
H          7.78821       -3.48421        2.87935
H         10.34554       -2.75713        4.43477
H         10.25664       -2.99193        2.68995
H          9.52612       -5.38353        3.04901
H          9.62428       -5.15144        4.79461
H         11.99011       -4.87632        2.84186
H         12.09141       -4.64674        4.58685
H         11.28069       -7.27549        3.20072
H         11.38976       -7.04561        4.94598
H         13.73706       -6.75272        2.97747
H         13.84789       -6.51863        4.72078
H         13.07937       -9.17794        3.33744
H         13.18739       -8.94132        5.09554
H         14.64828       -8.80632        4.08925
