51
N-DODECYLCYCLOPENTANE.gamout	Energy:    -667.3452323
C         -0.68544       -0.79037       -0.08396
C          0.82563       -0.63998        0.16873
C          1.17447        0.78670       -0.31108
C         -0.15837        1.58839       -0.26330
C         -1.21089        0.60718        0.28967
C         -1.37631       -1.94436        0.65170
C         -0.93479       -3.35294        0.22878
C         -1.69092       -4.47766        0.94965
C         -1.27415       -5.89428        0.53186
C         -2.03884       -7.00656        1.26276
C         -1.63818       -8.42959        0.85181
C         -2.41051       -9.52994        1.59309
C         -2.02364      -10.95966        1.19253
C         -2.80355      -12.04732        1.94423
C         -2.42896      -13.48262        1.55603
C         -3.21551      -14.55659        2.31642
C         -2.84038      -15.98782        1.92959
H         -0.84002       -0.93084       -1.17290
H          1.42994       -1.41095       -0.33269
H          1.01482       -0.73837        1.25352
H          1.57250        0.76240       -1.33864
H          1.95920        1.24243        0.31249
H         -0.44061        1.92167       -1.27561
H         -0.08246        2.49790        0.35240
H         -1.26868        0.68284        1.39100
H         -2.22317        0.80243       -0.09787
H         -2.46724       -1.85234        0.49906
H         -1.21626       -1.81991        1.74037
H          0.14939       -3.47474        0.40716
H         -1.07232       -3.46257       -0.86374
H         -2.77678       -4.35309        0.77612
H         -1.55106       -4.36474        2.04164
H         -0.18899       -6.02401        0.70543
H         -1.41718       -6.01057       -0.55937
H         -3.12399       -6.87117        1.09292
H         -1.89281       -6.88863        2.35343
H         -0.55349       -8.56840        1.02171
H         -1.78664       -8.55121       -0.23810
H         -3.49492       -9.38598        1.42519
H         -2.26048       -9.40482        2.68246
H         -0.93972      -11.10635        1.36103
H         -2.17564      -11.08877        0.10393
H         -3.88713      -11.89673        1.77661
H         -2.65107      -11.91452        3.03239
H         -1.34627      -13.63864        1.72522
H         -2.58336      -13.62213        0.46886
H         -4.29748      -14.40146        2.14762
H         -3.06155      -14.41736        3.40277
H         -3.02090      -16.17852        0.85768
H         -3.42834      -16.72441        2.49975
H         -1.77369      -16.19333        2.12396
