62
N-EICOSANE.gamout	Energy:    -786.3193755
C          5.49783        2.30011        4.67000
C          4.32231        1.66575        3.91492
C          3.03908        2.50645        3.92648
C          6.78336        1.46313        4.63994
C          1.87581        1.87968        3.14634
C          7.97082        2.10831        5.36700
C          0.59410        2.72304        3.13908
C          9.25937        1.27589        5.32315
C         -0.55889        2.10052        2.34034
C         10.45590        1.93345        6.02442
C         -1.83915        2.94607        2.31862
C         11.74699        1.10524        5.97224
C         -2.98597        2.32580        1.50889
C         12.94858        1.77418        6.65415
C         -4.26547        3.17119        1.47829
C         14.24222        0.95137        6.60066
C         -5.40614        2.54996        0.66386
C         15.44167        1.63002        7.27290
C         -6.67767        3.39936        0.63813
C         16.72751        0.80364        7.21650
H          5.20263        2.48131        5.72099
H          5.70534        3.29983        4.24296
H          4.62462        1.48102        2.86650
H          4.10950        0.66719        4.34215
H          2.72500        2.68195        4.97298
H          3.25766        3.50845        3.51034
H          6.58212        0.46733        5.07903
H          7.06587        1.27072        3.58735
H          1.65269        0.87965        3.56484
H          2.19670        1.69944        2.10263
H          7.69465        2.29929        6.42142
H          8.16662        3.10395        4.92518
H          0.82125        3.72559        2.72881
H          0.26408        2.89662        4.18103
H          9.06987        0.28392        5.77585
H          9.52508        1.07390        4.26798
H         -0.78986        1.09989        2.75318
H         -0.22408        1.92233        1.30066
H         10.64108        2.92437        5.56775
H         10.19512        2.13578        7.08067
H         -2.17951        3.11997        3.35718
H         -1.60601        3.94818        1.91062
H         12.00116        0.89386        4.91609
H         11.56685        0.11738        6.43746
H         -2.64324        2.14891        0.47156
H         -3.22160        1.32495        1.91864
H         12.69699        1.98665        7.71065
H         13.12587        2.76097        6.18555
H         -4.61368        3.34607        2.51427
H         -4.03174        4.17317        1.06987
H         14.49430        0.73309        5.54528
H         14.07045       -0.03359        7.07541
H         -5.64119        1.54922        1.07204
H         -5.05916        2.37527       -0.37160
H         15.61371        2.61362        6.79765
H         15.19147        1.84812        8.32784
H         -6.49143        4.39461        0.19879
H         -7.47082        2.91893        0.04363
H         -7.07765        3.56048        1.65406
H         16.60457       -0.17065        7.71995
H         17.56317        1.32587        7.70895
H         17.03240        0.59841        6.17590
