15
N-ETHYLACETAMIDE.gamout	Energy:    -287.4542267
C         -1.41502       -0.42908        0.00659
C         -2.70154        0.38599        0.00269
N         -0.24218        0.43241       -0.01048
C          1.02315       -0.08199       -0.01066
C          2.14723        0.94543        0.00630
O          1.23225       -1.28357       -0.00001
H         -1.37221       -1.08651        0.89321
H         -1.37994       -1.10685       -0.86482
H         -2.77715        1.01863       -0.89803
H         -3.57702       -0.28091        0.01494
H         -2.76863        1.04019        0.88861
H         -0.37340        1.43656       -0.01903
H          2.42561        1.17070        1.04975
H          3.02572        0.50884       -0.48667
H          1.87650        1.89014       -0.49083
