20
N-ETHYLANILINE.gamout	Energy:    -365.7255119
C          7.78960        5.12988       -1.72076
C          6.63494        4.15023       -1.54378
N          7.08957        2.91953       -0.93183
C          6.25684        1.84696       -0.66162
C          6.81405        0.60453       -0.28219
C          4.85111        1.94535       -0.73233
C          6.00113       -0.48365        0.01940
C          4.60684       -0.37577       -0.04441
C          4.04739        0.84564       -0.42157
H          7.43444        6.07030       -2.16825
H          8.26327        5.36445       -0.75378
H          8.56385        4.71681       -2.39027
H          6.14780        3.96486       -2.52549
H          5.86243        4.61080       -0.90191
H          8.05685        2.67670       -1.11322
H          7.90197        0.50457       -0.22078
H          4.38033        2.88277       -1.02935
H          6.46326       -1.43094        0.31020
H          3.97092       -1.23099        0.19301
H          2.96068        0.95112       -0.48299
