19
N-ETHYLPYRROLIDONE.gamout	Energy:    -364.7670883
C         -1.70446        0.13986       -0.50554
C         -2.59755        0.59732        0.64956
N         -0.28849        0.21231       -0.20903
C          0.49032       -0.91174       -0.06469
C          1.93865       -0.44330        0.07490
C          1.82408        1.05742        0.36439
C          0.47143        1.44904       -0.25961
O          0.08736       -2.05861       -0.07783
H         -1.91031       -0.91355       -0.74752
H         -1.91530        0.73830       -1.41202
H         -2.38731        1.63896        0.94397
H         -3.65856        0.54232        0.35771
H         -2.44858       -0.04494        1.53149
H          2.45391       -1.02267        0.85332
H          2.45321       -0.65258       -0.87991
H          1.79117        1.22951        1.45249
H          2.65571        1.65264       -0.03803
H          0.58460        1.79922       -1.30647
H         -0.02965        2.25565        0.30084
