17
N-FORMYLMORPHOLINE.gamout	Energy:    -400.6193868
C          1.83753        1.92993       -0.50882
C          0.47823        2.18760        0.14137
N          2.28448        0.58409       -0.18351
O         -0.45281        1.17255       -0.18868
C         -0.01790       -0.10236        0.23360
C          1.31727       -0.47194       -0.41848
C          3.51339        0.36493        0.36834
O          4.34229        1.21834        0.60692
H          2.60057        2.63117       -0.14437
H          1.75218        2.04173       -1.60651
H          0.05288        3.13765       -0.21486
H          0.60147        2.25148        1.24256
H         -0.79997       -0.82187       -0.05234
H          0.09480       -0.12776        1.33820
H          1.70192       -1.41601       -0.00242
H          1.16248       -0.61377       -1.50570
H          3.67956       -0.71936        0.58303
