20
N-HEXANOIC_ACID.gamout	Energy:    -385.8157843
C          0.89341        4.44494        3.52503
C          2.39094        4.16421        3.38694
C          2.71037        2.93805        2.52364
C          4.21066        2.65842        2.38613
C          4.53392        1.43678        1.52584
C          6.02868        1.16555        1.39585
O          6.35626        0.08844        0.63951
O          6.88963        1.82659        1.90598
H          0.70776        5.33187        4.15100
H          0.42498        4.62805        2.54282
H          0.36444        3.59461        3.98824
H          2.89427        5.04966        2.95741
H          2.83442        4.02579        4.39008
H          2.26597        3.07681        1.51921
H          2.20649        2.05125        2.95377
H          4.72220        3.53596        1.95592
H          4.66262        2.51573        3.38236
H          4.05748        0.52716        1.93910
H          4.11889        1.55231        0.50622
H          5.55962       -0.34148        0.29815
