20
N-HEXANE.gamout	Energy:    -236.7316541
C          3.08431        1.08950        1.94297
C          2.98227        1.47516        3.42246
C          3.93082        0.69505        4.33995
C          2.11834        1.85242        1.02933
C          3.82464        1.08967        5.81363
C          2.23006        1.46462       -0.44575
H          2.90497        0.00282        1.83421
H          4.12126        1.25593        1.59320
H          3.18200        2.55830        3.53129
H          1.94119        1.32882        3.76886
H          3.73204       -0.38735        4.23181
H          4.97091        0.84220        3.99367
H          1.08207        1.68563        1.37795
H          2.29754        2.93815        1.13909
H          4.50112        0.48847        6.44197
H          4.08533        2.15109        5.96596
H          2.80008        0.94586        6.19800
H          2.04625        0.38671       -0.59474
H          1.50116        2.01340       -1.06326
H          3.23524        1.68327       -0.84550
