33
N-HEPTYLBENZENE.gamout	Energy:    -506.7262764
C          6.31814        2.47187        3.14345
C          4.98025        3.17988        3.39806
C          3.98062        3.13562        2.23579
C          2.62780        3.78083        2.56136
C          1.61757        3.73455        1.40971
C          0.27106        4.37658        1.74814
C          7.21393        3.12486        2.07350
C          8.53618        2.41290        1.89998
C          8.69071        1.38766        0.95554
C          9.90119        0.70311        0.82664
C         10.98606        1.03326        1.64180
C         10.84801        2.05419        2.58515
C          9.63554        2.73416        2.70995
H          6.88268        2.42945        4.09062
H          6.13366        1.42006        2.85691
H          4.51214        2.71684        4.28546
H          5.17099        4.23416        3.67597
H          4.41148        3.63476        1.34873
H          3.81667        2.08174        1.93996
H          2.19090        3.28044        3.44664
H          2.78734        4.83430        2.86114
H          2.05073        4.23656        0.52464
H          1.45610        2.68255        1.10906
H          0.38684        5.44101        2.01514
H         -0.42492        4.32174        0.89618
H         -0.21169        3.87432        2.60394
H          6.68425        3.14701        1.10663
H          7.39879        4.17717        2.35237
H          7.85002        1.12312        0.30810
H          9.99849       -0.09026        0.08168
H         11.93491        0.50187        1.54045
H         11.69109        2.32518        3.22504
H          9.53994        3.53515        3.44837
