48
N-HEXADECYLNITRILE.gamout	Energy:    -682.1612972
C        155.98001       10.02046        0.00108
C        154.69379        9.18346        0.00072
C        154.93461        7.66803        0.00110
C        155.74127       11.53621        0.00053
C        153.64809        6.83115        0.00057
C        157.02916       12.37115        0.00066
C        153.88812        5.31547        0.00075
C        156.79562       13.88789        0.00007
C        152.59847        4.48253        0.00008
C        158.08687       14.71832        0.00004
C        152.83904        2.96885        0.00003
C        157.86210       16.23567       -0.00058
C        151.52418        2.16312       -0.00083
C        159.15748       17.05680       -0.00071
C        151.73237        0.71242       -0.00103
C        158.92788       18.56930       -0.00126
N        151.91691       -0.43173       -0.00124
H        156.59023        9.74789        0.88293
H        156.59099        9.74740       -0.88011
H        154.08339        9.45530       -0.88124
H        154.08255        9.45569        0.88198
H        155.54486        7.39598        0.88300
H        155.54564        7.39568       -0.88018
H        155.13110       11.80875       -0.88139
H        155.13047       11.80938        0.88184
H        153.03799        7.10329       -0.88145
H        153.03702        7.10332        0.88193
H        157.63890       12.09690        0.88240
H        157.63949       12.09635       -0.88050
H        154.49664        5.04125        0.88282
H        154.49750        5.04118       -0.88073
H        156.18635       14.16273       -0.88179
H        156.18594       14.16344        0.88144
H        151.98909        4.75439       -0.88229
H        151.98811        4.75414        0.88188
H        158.69565       14.44168        0.88171
H        158.69609       14.44106       -0.88116
H        153.43486        2.67951        0.88272
H        153.43580        2.67971       -0.88209
H        157.25528       16.51619       -0.88254
H        157.25500       16.51694        0.88095
H        150.91515        2.42242       -0.88451
H        150.91407        2.42205        0.88222
H        159.76388       16.77682        0.88058
H        159.76415       16.77621       -0.88164
H        159.88180       19.12054       -0.00132
H        158.35886       18.89105       -0.89022
H        158.35863       18.89170        0.88732
