60
N-HEXADECYLBENZENE.gamout	Energy:    -860.0339612
C         -0.50267       -0.98447        0.93436
C         -0.19373       -0.50625       -0.49156
C         -1.27256       -2.31077        1.00325
C          0.55840        0.83081       -0.55130
C         -1.57250       -2.78494        2.43262
C          0.87472        1.31546       -1.97374
C         -2.35720       -4.10239        2.50995
C          1.60680        2.66458       -2.02577
C         -2.64908       -4.57500        3.94184
C          1.92814        3.15576       -3.44541
C         -3.44288       -5.88679        4.02470
C          2.63986        4.51411       -3.49015
C         -3.72739       -6.36127        5.45644
C          2.94632        5.00963       -4.91786
C         -4.52355       -7.66922        5.53670
C          3.65404        6.34589       -4.94952
C         -4.79567       -8.13701        6.96813
C          5.05382        6.42434       -4.91349
C          2.92573        7.54398       -4.97951
C          5.70578        7.65908       -4.90285
C          3.57219        8.78125       -4.96806
C          4.96705        8.84426       -4.92956
H         -1.07977       -0.20159        1.46231
H          0.44505       -1.08566        1.49613
H         -1.13917       -0.41913       -1.05946
H          0.39836       -1.28083       -1.01508
H         -2.22295       -2.21058        0.44577
H         -0.69708       -3.09339        0.47316
H         -0.03498        1.60449       -0.02793
H          1.50168        0.74183        0.01988
H         -2.13469       -1.99501        2.96617
H         -0.62018       -2.89683        2.98465
H          1.48380        0.55035       -2.49169
H         -0.06600        1.38858       -2.55140
H         -3.31190       -3.99109        1.96187
H         -1.79626       -4.89145        1.97376
H          0.99686        3.42864       -1.50761
H          2.54635        2.59035       -1.44662
H         -3.20120       -3.78134        4.48043
H         -1.69320       -4.69399        4.48629
H          0.99151        3.21687       -4.03109
H          2.55269        2.40078       -3.95972
H         -4.40140       -5.76767        3.48487
H         -2.89252       -6.67931        3.48260
H          2.02444        5.27444       -2.97560
H          3.58518        4.46027       -2.92043
H         -4.27545       -5.56898        6.00153
H         -2.76955       -6.48582        5.99659
H          3.56214        4.25574       -5.43841
H          2.00104        5.08461       -5.48257
H         -5.48304       -7.54394        5.00147
H         -3.97797       -8.46018        4.98908
H         -5.36802       -9.07779        6.98001
H         -5.37579       -7.38801        7.53398
H         -3.85601       -8.31201        7.51942
H          5.64360        5.50347       -4.89279
H          1.83321        7.50750       -5.01534
H          6.79765        7.69518       -4.87702
H          2.98293        9.70108       -4.99513
H          5.47488        9.81149       -4.92340
