63
N-HEXADECYLCYCLOPENTANE.gamout	Energy:    -824.3552317
C          1.66388        0.66871        4.56504
C          0.37050        0.55813        5.39533
C          2.21880        2.09441        4.84102
C         -0.12597        2.00423        5.47474
C          1.15786        2.82287        5.71192
C          0.97991        4.32909        5.47068
C          2.07064        5.26743        6.01836
C          7.96606        5.37383        4.35181
C          6.63903        5.21889        5.11313
C          8.94274        6.38958        4.95864
C          5.72285        6.44794        5.05480
C          4.39863        6.31735        5.82483
C          3.40991        5.28390        5.26892
C         13.60846        6.46833        0.94488
C         12.33006        6.17274        1.74788
C         14.76922        7.10695        1.73537
C         11.51800        7.41914        2.12262
C         10.17535        7.13720        2.81482
C         10.28202        6.52559        4.21743
C         15.35908        5.09942        3.27767
C         15.83483        6.13049        2.25356
H          2.38681       -0.12540        4.80822
H          1.42798        0.55628        3.49367
H         -0.36419       -0.13126        4.95289
H          0.59379        0.18750        6.41144
H          2.37339        2.63791        3.89486
H          3.19723        2.06026        5.34401
H         -0.58817        2.29808        4.51321
H         -0.88046        2.16634        6.26040
H          1.43347        2.68303        6.77484
H          0.84383        4.50878        4.38656
H          0.02651        4.62563        5.94091
H          2.24870        5.02422        7.08316
H          1.66134        6.29407        6.01541
H          7.74445        5.64506        3.30333
H          8.46542        4.38914        4.30624
H          6.10460        4.34554        4.70144
H          6.84990        4.97088        6.17131
H          8.46430        7.38460        5.01082
H          9.14519        6.09857        6.00534
H          6.26395        7.32327        5.45244
H          5.50747        6.68642        3.99545
H          4.61754        6.08140        6.88406
H          3.90849        7.30769        5.83793
H          3.22211        5.50294        4.20058
H          3.86809        4.28201        5.29701
H         13.33904        7.12690        0.10078
H         13.96460        5.53123        0.48095
H         12.58993        5.60539        2.65759
H         11.68813        5.50242        1.14815
H         14.36848        7.69628        2.58083
H         15.28015        7.84081        1.09029
H         12.12271        8.08226        2.76918
H         11.31938        7.99914        1.20303
H          9.56694        6.48131        2.16573
H          9.61739        8.08792        2.88958
H         10.95220        7.15751        4.82791
H         10.77070        5.53559        4.16081
H         16.20133        4.48835        3.63960
H         14.61358        4.40645        2.85460
H         14.90085        5.58485        4.15638
H         16.28535        5.60499        1.39049
H         16.65385        6.72273        2.69880
