26
N-HEPTYL_FORMATE.gamout	Energy:    -464.3105220
C         86.88517       10.19925       -0.18046
C         85.62947        9.33368       -0.33384
C         85.84408        7.86005        0.03385
C         86.64079       11.65600       -0.55774
C         84.58896        6.99124       -0.11589
O         87.84388       12.42464       -0.49376
C         84.80366        5.51889        0.25210
C         88.04290       13.22856        0.56426
C         83.54715        4.65973        0.09933
O         89.03740       13.87131        0.72089
H         87.25165       10.15315        0.86111
H         87.69997        9.80707       -0.81369
H         85.26882        9.40147       -1.37725
H         84.81825        9.75103        0.29208
H         86.21005        7.79469        1.07568
H         86.65307        7.44250       -0.59433
H         86.27887       11.73407       -1.59558
H         85.87117       12.10797        0.09584
H         84.22301        7.05569       -1.15825
H         83.77854        7.40840        0.51171
H         85.16924        5.45366        1.29359
H         85.61291        5.10166       -0.37524
H         87.17287       13.23574        1.26908
H         83.74159        3.61069        0.37290
H         83.17703        4.66880       -0.94009
H         82.72851        5.02421        0.74321
