80
N-HEXACOSANE.gamout	Energy:   -1021.8567026
C         15.57135       -0.24996       -4.05763
C         14.42597        0.45713       -3.32999
C         13.09270       -0.29639       -3.40222
C         11.93748        0.40898       -2.68095
C         10.59935       -0.33811       -2.75809
C          9.44333        0.37557       -2.04458
C          8.10134       -0.36434       -2.12889
C          6.94418        0.35685       -1.42424
C          5.59876       -0.37606       -1.51575
C          4.44096        0.35188       -0.81889
C          3.09284       -0.37528       -0.91626
C          1.93468        0.35733       -0.22493
C          0.58513       -0.36663       -0.32628
C         -0.57371        0.36752        0.36233
C         -1.92328       -0.35635        0.25914
C         -3.08326        0.37597        0.94808
C         -4.43143       -0.35091        0.84539
C         -5.59268        0.37640        1.53769
C         -6.93812       -0.35616        1.43773
C         -8.10015        0.36413        2.13610
C         -9.44237       -0.37518        2.04102
C        -10.60444        0.33739        2.74713
C        -11.94343       -0.40854        2.65801
C        -13.10539        0.29536        3.37111
C        -14.43817       -0.45776        3.28535
C        -15.59016        0.24738        4.00441
H         15.75972       -1.25144       -3.63453
H         15.34584       -0.38270       -5.12958
H         16.50945        0.32313       -3.98464
H         14.70179        0.61006       -2.27018
H         14.29253        1.47021       -3.75262
H         12.82027       -0.44855       -4.46399
H         13.22512       -1.31054       -2.97962
H         12.21005        0.56305       -1.61967
H         11.81102        1.42246       -3.10667
H         10.33009       -0.49076       -3.82045
H         10.72203       -1.35215       -2.33270
H          9.70987        0.53040       -0.98186
H          9.32469        1.38886       -2.47302
H          7.83827       -0.51744       -3.19275
H          8.21571       -1.37826       -1.70085
H          7.20453        0.51214       -0.36004
H          6.83367        1.37000       -1.85520
H          5.34144       -0.52966       -2.58096
H          5.70523       -1.38982       -1.08525
H          4.69612        0.50724        0.24657
H          4.33746        1.36500       -1.25169
H          2.83984       -0.52932       -1.98245
H          3.19331       -1.38888       -0.48394
H          2.18635        0.51243        0.84141
H          1.83577        1.37052       -0.65859
H          0.33486       -0.52087       -1.39308
H          0.68263       -1.38016        0.10690
H         -0.32369        0.52206        1.42914
H         -0.67109        1.38092       -0.07118
H         -2.17257       -0.51057       -0.80790
H         -1.82545       -1.36992        0.69218
H         -2.83306        0.52967        2.01498
H         -3.18244        1.38973        0.51581
H         -4.68186       -0.50486       -0.22142
H         -4.33003       -1.36462        1.27730
H         -5.34047        0.52906        2.60428
H         -5.69700        1.39058        1.10766
H         -7.19173       -0.50956        0.37159
H         -6.83057       -1.37010        1.86758
H         -7.84398        0.51568        3.20190
H         -8.21143        1.37873        1.70883
H         -9.70069       -0.52778        0.97591
H         -9.32731       -1.38945        2.46815
H        -10.34315        0.48793        3.81184
H        -10.72333        1.35234        2.32278
H        -12.20709       -0.56020        1.59407
H        -11.82111       -1.42318        3.08231
H        -12.84208        0.44498        4.43560
H        -13.23414        1.31055        2.94977
H        -14.70478       -0.60813        2.22274
H        -14.30886       -1.47199        3.70667
H        -15.37512        0.37724        5.07889
H        -15.77584        1.24984        3.58227
H        -16.52644       -0.32661        3.92066
