29
N-HEPTYL_ACETATE.gamout	Energy:    -503.5849056
C          6.94299        1.41676        2.86183
C          5.81322        2.28126        2.29433
C          8.27249        2.14757        2.93112
C          4.46327        1.55743        2.21819
O          9.24425        1.24239        3.47187
C          3.32275        2.41064        1.65070
C         10.49648        1.71450        3.62399
C          1.97563        1.68280        1.58226
C         11.40822        0.64923        4.18121
O         10.82046        2.84295        3.34767
C          0.84156        2.53857        1.01582
H          7.07177        0.50875        2.24598
H          6.68342        1.06347        3.87557
H          6.09735        2.63431        1.28529
H          5.70322        3.19418        2.90947
H          8.21703        3.04622        3.56883
H          8.60957        2.48706        1.93658
H          4.18494        1.20167        3.22816
H          4.57388        0.64405        1.60331
H          3.59856        2.76260        0.63839
H          3.20920        3.32638        2.26203
H          1.70134        1.33122        2.59420
H          2.08662        0.76773        0.97104
H         11.40543       -0.23117        3.52021
H         12.42509        1.04726        4.27826
H         11.03671        0.31681        5.16303
H         -0.10775        1.98078        0.98837
H          0.67644        3.44400        1.62473
H          1.06173        2.87069       -0.01311
