30
N-HEXYLBENZENE.gamout	Energy:    -467.4713105
C          4.97907        3.00840        0.92632
C          3.69189        3.31565        0.15285
C          2.51350        3.72983        1.04251
C          1.21815        4.01216        0.27311
C          0.04890        4.42338        1.17042
C          6.15988        2.59198        0.02784
C          7.41833        2.27058        0.80255
C          7.69454        0.95906        1.21565
C          8.83616        0.66429        1.96416
C          9.72781        1.68115        2.31401
C          9.46706        2.99193        1.90750
C          8.32420        3.28031        1.15860
H          5.27642        3.89055        1.52202
H          4.78846        2.20332        1.65919
H          3.88998        4.11556       -0.58577
H          3.40506        2.42669       -0.44050
H          2.32511        2.93623        1.79040
H          2.79356        4.62852        1.62428
H          1.40411        4.80520       -0.47484
H          0.93799        3.11366       -0.30741
H          0.28074        5.34129        1.73697
H         -0.86005        4.61905        0.57969
H         -0.19415        3.63465        1.90276
H          5.86551        1.71075       -0.56762
H          6.36794        3.40106       -0.69379
H          7.00504        0.15451        0.94457
H          9.03229       -0.36571        2.27234
H         10.62309        1.45289        2.89696
H         10.15959        3.79517        2.17100
H          8.13207        4.31005        0.84387
