23
N-HEXYL_FORMATE.gamout	Energy:    -425.0543441
C         86.09685        9.94009        0.17257
C         84.87611        9.02197        0.30062
C         85.25815        7.55061        0.41494
C         85.74468       11.42791        0.05550
O         84.10170        6.72277        0.55930
C         86.96430       12.34081       -0.11750
C         83.69643        5.98894       -0.49062
C         86.60693       13.82352       -0.23402
O         82.72739        5.29112       -0.46871
H         86.76048        9.79000        1.04459
H         86.68847        9.63626       -0.71137
H         84.21547        9.14992       -0.57574
H         84.27671        9.30036        1.18464
H         85.87971        7.37388        1.30740
H         85.84089        7.22770       -0.46804
H         85.05780       11.57401       -0.79913
H         85.17963       11.74179        0.95293
H         87.65167       12.19405        0.73594
H         87.52773       12.02577       -1.01501
H         84.37142        6.09825       -1.37748
H         87.50728       14.44401       -0.36492
H         85.94487       14.01258       -1.09614
H         86.08344       14.18439        0.66757
