22
N-HEXYLAMINE.gamout	Energy:    -292.0039816
C         35.00624       10.03353        0.00607
C         36.30014        9.21033        0.01056
C         36.07809        7.69490        0.01601
C         35.23307       11.54933       -0.00493
C         37.37476        6.88297        0.02657
C         33.93919       12.36530       -0.01007
N         37.09688        5.45052       -0.01815
H         34.39729        9.74945       -0.87289
H         34.39847        9.76269        0.89031
H         36.90834        9.49528        0.88983
H         36.90642        9.48366       -0.87361
H         35.48750        7.38782       -0.86493
H         35.47274        7.41421        0.89985
H         35.84217       11.83240        0.87350
H         35.84027       11.81976       -0.88864
H         37.98957        7.20354        0.89857
H         37.96558        7.14424       -0.87018
H         34.14533       13.44756       -0.01816
H         33.32261       12.13865       -0.89676
H         33.32294       12.15210        0.88027
H         37.96782        4.92004       -0.05084
H         36.62653        5.15859        0.84059
