36
N-HEXYLCYCLOHEXANE.gamout	Energy:    -471.0625922
C          5.70449        2.00424        1.79653
C          7.10186        1.84370        2.41097
C          8.26726        2.34375        1.53739
C          4.57606        1.41294        2.65289
C          8.14073        3.84525        1.18717
C          9.64236        2.05411        2.19624
C          3.17807        1.57470        2.04363
C          9.49062        4.45887        0.80615
C         10.18596        3.26701        2.95472
C          2.05226        0.98078        2.89724
C         10.46902        4.44384        1.99900
C          0.66162        1.14938        2.28366
H          5.68936        1.52337        0.79926
H          5.49614        3.07479        1.61995
H          7.27000        0.77447        2.63562
H          7.13303        2.36638        3.38716
H          8.22760        1.77711        0.58848
H          4.59182        1.88574        3.65366
H          4.77626        0.33806        2.82481
H          7.72950        4.39513        2.05499
H          7.41495        3.98159        0.37035
H          9.55823        1.18609        2.87003
H         10.37265        1.76526        1.42075
H          3.15812        1.10444        1.04162
H          2.97606        2.64998        1.87555
H          9.35554        5.48736        0.43529
H          9.91563        3.88592       -0.03772
H          9.44961        3.57055        3.71995
H         11.10017        2.99824        3.50732
H          2.07112        1.44979        3.89880
H          2.25158       -0.09429        3.06388
H         11.50432        4.38489        1.62248
H         10.40110        5.39101        2.56009
H          0.40982        2.21412        2.13827
H          0.59192        0.65971        1.29690
H         -0.11725        0.71009        2.92687
