26
N-HEXYL_ACETATE.gamout	Energy:    -464.3286748
C         -1.16689        5.50804       -1.15721
C          0.35448        5.47075       -1.31309
C          1.06193        4.65231       -0.22679
C          2.58711        4.60794       -0.37434
C          3.29134        3.78677        0.71109
C          4.80001        3.76391        0.53792
C          7.15466        1.98119        2.75880
C          6.70216        2.84521        1.60713
O          5.36074        2.97184        1.59466
O          7.42533        3.36481        0.79331
H         -1.59961        4.49398       -1.19739
H         -1.46180        5.95311       -0.19153
H         -1.63851        6.10301       -1.95511
H          0.75180        6.50264       -1.30763
H          0.61239        5.05677       -2.30556
H          0.66397        3.61989       -0.23327
H          0.80300        5.06625        0.76623
H          2.84448        4.19508       -1.36784
H          2.98426        5.64028       -0.36663
H          3.05483        4.19462        1.70996
H          2.91588        2.74804        0.70439
H          5.09517        3.33027       -0.43302
H          5.23309        4.77778        0.57663
H          6.69364        0.98406        2.68540
H          6.82171        2.42138        3.71171
H          8.24747        1.89444        2.74486
