83
N-HEPTACOSANE.gamout	Energy:   -1061.0992451
C          3.64641        2.27786        2.01637
C          2.98289        3.32474        1.11236
C          1.45277        3.21399        1.09475
C          5.16868        2.40293        2.18117
C          0.73276        4.14142        0.10443
C          5.98729        2.18453        0.90299
C          0.92667        5.65280        0.30417
C          7.50842        2.11449        1.11224
C          0.45289        6.20103        1.65649
C          8.17321        3.40480        1.60934
C          0.47664        7.73383        1.73392
C          9.69883        3.29288        1.72992
C          0.04152        8.34010        3.07891
C         10.42219        4.57765        2.16444
C          1.03706        8.17998        4.23587
C         10.10328        5.10612        3.57243
C          0.53457        8.80093        5.54582
C         10.50234        4.17230        4.72251
C          1.52951        8.88294        6.71446
C         10.24961        4.75641        6.11976
C          2.04220        7.54682        7.28838
C         10.64668        3.82466        7.27234
C          3.32916        7.00410        6.65245
C         10.38136        4.40359        8.66641
C          3.82602        5.69365        7.27422
C         10.77709        3.46349        9.80628
C          5.12181        5.16749        6.65329
H          3.40433        1.26747        1.63440
H          3.18606        2.33362        3.01918
H          3.36360        3.22533        0.07928
H          3.28360        4.33456        1.44805
H          1.06558        3.38003        2.11722
H          1.17748        2.17388        0.84454
H          5.49313        1.66489        2.93665
H          5.40382        3.39370        2.61155
H          1.05693        3.88461       -0.92043
H         -0.34801        3.91553        0.14157
H          5.66191        1.23942        0.43173
H          5.75926        2.97900        0.16879
H          0.37806        6.17207       -0.50210
H          1.98922        5.91749        0.15292
H          7.73581        1.29414        1.81999
H          7.97737        1.81961        0.15600
H          1.07349        5.77670        2.46541
H         -0.57803        5.84765        1.85126
H          7.74748        3.68852        2.58791
H          7.92342        4.23453        0.92036
H         -0.18366        8.13488        0.94446
H          1.49159        8.09603        1.48071
H          9.94861        2.47017        2.42457
H         10.11222        2.98568        0.75280
H         -0.14458        9.41804        2.92717
H         -0.93453        7.91000        3.37511
H         11.51028        4.39956        2.09356
H         10.20304        5.37686        1.43352
H          1.99795        8.64872        3.95057
H          1.25835        7.10980        4.39172
H          9.02700        5.34620        3.65172
H         10.62885        6.06934        3.69824
H          0.18942        9.82925        5.33510
H         -0.36507        8.25131        5.88303
H         11.57408        3.91375        4.62405
H          9.95664        3.21521        4.63157
H          2.39265        9.51028        6.42161
H          1.02520        9.43631        7.52315
H          9.17727        5.01298        6.21578
H         10.79574        5.71376        6.22160
H          2.22626        7.67703        8.36934
H          1.24188        6.78567        7.21748
H         10.10195        2.86650        7.17023
H         11.71969        3.56766        7.18482
H          3.18275        6.85609        5.56841
H          4.11987        7.77272        6.74395
H         10.92369        5.36130        8.77448
H          9.30846        4.65606        8.75528
H          3.97478        5.83748        8.36083
H          3.03689        4.92471        7.17955
H         10.56482        3.91243       10.78913
H         11.85320        3.22069        9.77636
H         10.22570        2.50904        9.75129
H          5.44327        4.23003        7.13274
H          5.94510        5.89475        6.75927
H          5.00306        4.96262        5.57543
