38
N-LAURIC_ACID.gamout	Energy:    -621.3610415
C          4.62585        4.92095       -3.83617
C          5.96220        4.48250       -3.22201
C          4.65487        5.06652       -5.36231
C          5.90648        4.27985       -1.70208
C          3.30156        5.50615       -5.94649
C          7.23578        3.84168       -1.07286
C          3.27878        5.60289       -7.45531
C          7.15556        3.59645        0.43996
C          8.47988        3.16047        1.08134
C          8.38598        2.89519        2.58926
C          9.70808        2.46591        3.23517
C          9.59830        2.20471        4.73838
H          4.31198        5.88096       -3.38416
H          3.84220        4.19109       -3.55820
H          6.29119        3.54091       -3.70112
H          6.74073        5.22991       -3.46537
H          4.95136        4.10321       -5.81572
H          5.42732        5.79629       -5.65840
H          5.56518        5.21630       -1.22134
H          5.12981        3.52677       -1.46900
H          3.03690        6.50266       -5.54884
H          2.49849        4.81057       -5.66190
H          7.58725        2.91853       -1.57168
H          8.00945        4.60556       -1.27883
H          6.79336        4.51538        0.93897
H          6.38537        2.82721        0.63956
H          9.24909        3.93419        0.89601
H          8.84677        2.24774        0.57440
H          7.62191        2.11608        2.77432
H          8.01207        3.80466        3.09726
H         10.47251        3.24419        3.05334
H         10.08199        1.55586        2.73020
H          8.87454        1.40083        4.95675
H          9.26335        3.10571        5.28050
H         10.56742        1.90275        5.16582
O          4.23057        6.44157       -7.92568
O          2.51562        5.02443       -8.18845
H          4.14610        6.43552       -8.89493
