53
N-MARGARIC_ACID.gamout	Energy:    -817.6435357
C          0.59399        0.11297        0.01538
C          1.96262        0.80265        0.02323
C         -0.58406        1.08966        0.03685
C          3.15406       -0.16324        0.00201
C          4.52034        0.53394        0.00867
C          5.71945       -0.42350       -0.01495
C          7.07988        0.28577       -0.00553
C          8.28838       -0.65990       -0.03171
C          9.64185        0.06284       -0.01456
C         10.85987       -0.87052       -0.04257
C         12.20639       -0.13501       -0.01342
C         13.43279       -1.05743       -0.04285
C         14.77290       -0.31083        0.00093
C         16.00605       -1.22421       -0.03051
C         17.33698       -0.46609        0.02802
C         18.56059       -1.37953       -0.00905
C         19.87561       -0.63507        0.05895
O         20.92803       -1.48072        0.00845
O         20.01173        0.56004        0.14913
H          0.51723       -0.53632       -0.87646
H          0.52265       -0.56654        0.88492
H          2.03616        1.45323        0.91554
H          2.03129        1.48325       -0.84681
H         -1.54893        0.55795        0.02910
H         -0.56229        1.72575        0.93833
H         -0.56694        1.75970       -0.83981
H          3.07878       -0.81353       -0.89016
H          3.08621       -0.84334        0.87233
H          4.59197        1.18395        0.90137
H          4.58544        1.21581       -0.86050
H          5.64981       -1.07210       -0.90883
H          5.65773       -1.10635        0.85368
H          7.14457        0.93290        0.88982
H          7.13932        0.97176       -0.87187
H          8.22704       -1.30454       -0.92907
H          8.23163       -1.34770        0.83337
H          9.69712        0.70487        0.88510
H          9.69713        0.75493       -0.87634
H         10.80888       -1.50914       -0.94489
H         10.80633       -1.56519        0.81725
H         12.25123        0.49995        0.89180
H         12.25964        0.56464       -0.86918
H         13.39229       -1.68821       -0.95126
H         13.38007       -1.76033        0.81038
H         14.80796        0.31557        0.91232
H         14.82570        0.39712       -0.84779
H         15.97481       -1.84609       -0.94551
H         15.95312       -1.93653        0.81498
H         17.37975        0.15103        0.94198
H         17.40442        0.24999       -0.80922
H         18.58158       -1.99768       -0.92464
H         18.55605       -2.10677        0.82311
H         21.72664       -0.92774        0.05905
