13
N-METHYLPYRROLE.gamout	Energy:    -249.1405828
C          0.71280        1.95714        0.99434
N          1.98965        1.84161        1.66183
C          2.91475        0.84800        1.44347
C          2.52427        2.77130        2.52182
C          4.04799        1.13905        2.17940
C          3.79950        2.36290        2.86549
H         -0.00437        2.47899        1.64504
H          0.78809        2.51285        0.04261
H          0.31196        0.95567        0.78039
H          2.68936        0.01180        0.78367
H          1.95097        3.64689        2.82180
H          4.94917        0.53054        2.22913
H          4.47212        2.88064        3.54693
