20
N-METHYLPIPERIDINE.gamout	Energy:    -290.8009072
N          0.99693       -0.00011        0.25050
C         -1.86913        0.00036       -0.23458
C         -1.12306       -1.25539        0.22136
C         -1.12273        1.25572        0.22161
C          0.33946       -1.20793       -0.22192
C          0.33962        1.20780       -0.22201
C          2.41738       -0.00032       -0.01245
H         -1.93673        0.00048       -1.33890
H         -2.90516        0.00041        0.14199
H         -1.15451       -1.32849        1.32249
H         -1.60220       -2.16235       -0.18226
H         -1.60166        2.16296       -0.18167
H         -1.15386        1.32853        1.32278
H          0.88317       -2.08107        0.17484
H          0.38775       -1.28598       -1.33739
H          0.38770        1.28566       -1.33749
H          0.88354        2.08083        0.17455
H          2.66495       -0.00024       -1.10101
H          2.88718       -0.89119        0.43441
H          2.88748        0.89026        0.43463
