16
N-METHYLPYRROLIDONE.gamout	Energy:    -325.5089866
O         -2.30166        0.54760       -0.34011
N         -0.28616       -0.57201       -0.28478
C          1.08682        1.00786        0.77901
C          1.11669       -0.30003       -0.03534
C         -0.22512        1.67599        0.35117
C         -1.10669        0.51882       -0.12010
C         -0.74789       -1.81060       -0.85636
H          1.05797        0.77241        1.85499
H          1.97540        1.62939        0.59903
H          1.67277       -0.18090       -0.98865
H          1.59108       -1.13154        0.51411
H         -0.08785        2.36426       -0.50200
H         -0.73091        2.24417        1.14414
H         -0.51190       -2.66885       -0.20215
H         -0.28956       -1.99846       -1.84564
H         -1.83728       -1.73661       -0.97624
