12
N-METHYLACETAMIDE.gamout	Energy:    -248.1959203
C          1.96973        0.11618        0.00000
N          0.63846        0.68769       -0.00001
C         -0.47134       -0.10755       -0.00001
C         -1.80568        0.62412        0.00000
O         -0.39354       -1.32438        0.00000
H          2.71330        0.92512        0.00005
H          2.13345       -0.51858        0.88706
H          2.13354       -0.51853       -0.88708
H          0.53065        1.69308        0.00002
H         -1.71629        1.72101       -0.00003
H         -2.38023        0.31112       -0.88522
H         -2.38018        0.31118        0.88528
