21
N-METHYLDIETHANOLAMINE.gamout	Energy:    -402.9763326
O          3.23943       -1.44285       -0.69335
O         -2.43687        2.57329       -0.69591
N         -0.06445       -0.09284        0.20199
C          1.38125       -0.18028        0.06908
C         -0.62909        1.23991        0.06076
C         -0.56857       -0.80224        1.36243
C          1.82935       -1.47765       -0.59890
C         -2.01053        1.22934       -0.58939
H          1.73917        0.64900       -0.55952
H          1.90963       -0.08210        1.04399
H          0.02602        1.84385       -0.58515
H         -0.70070        1.78429        1.02946
H         -0.24713       -0.33802        2.32416
H         -1.66862       -0.82880        1.35707
H         -0.21772       -1.84529        1.36358
H          1.34036       -1.54464       -1.59180
H          1.48451       -2.35139       -0.00877
H         -1.92655        0.73222       -1.57669
H         -2.71766        0.62863        0.01848
H          3.54429       -2.26628       -1.09336
H         -3.31307        2.58974       -1.09998
