23
N-METHYLCYCLOHEXYLAMINE.gamout	Energy:    -330.0602457
C         -3.86820        1.13511        1.15168
C         -5.23808        1.80846        1.26934
C         -3.89428        0.00878        0.11415
C         -5.74070        2.30340       -0.09155
C         -5.78542        1.17479       -1.14266
C         -4.41099        0.50032       -1.24343
N         -6.23618        1.57426       -2.47095
C         -7.61868        1.99910       -2.59003
H         -3.54584        0.74638        2.13197
H         -3.11659        1.89036        0.85396
H         -5.96575        1.08454        1.68203
H         -5.19648        2.64428        1.98730
H         -2.89136       -0.43467        0.00169
H         -4.55264       -0.80258        0.47697
H         -6.73737        2.75965        0.01928
H         -5.06890        3.10119       -0.46454
H         -6.50707        0.41350       -0.78427
H         -3.69165        1.22931       -1.66586
H         -4.47316       -0.32773       -1.96635
H         -5.61006        2.28378       -2.85219
H         -7.84340        2.22448       -3.64445
H         -8.28762        1.17608       -2.28380
H         -7.90362        2.89122       -1.98976
