17
N-METHYLANILINE.gamout	Energy:    -326.4667773
C          6.65200        4.21131       -1.36481
N          7.11158        2.94123       -0.86192
C          6.27221        1.86456       -0.63443
C          6.82448        0.59488       -0.35137
C          4.86702        1.98679       -0.64941
C          6.00595       -0.49830       -0.08521
C          4.61210       -0.36748       -0.08968
C          4.05790        0.88121       -0.37462
H          7.51068        4.89173       -1.46025
H          6.15404        4.14721       -2.35485
H          5.93819        4.68373       -0.66797
H          8.07155        2.70014       -1.07332
H          7.91230        0.47852       -0.33469
H          4.40196        2.94839       -0.86857
H          6.46310       -1.46759        0.13143
H          3.97217       -1.22662        0.12135
H          2.97144        1.00441       -0.38906
