44
N-MYRISTIC_ACID.gamout	Energy:    -699.8745873
C          5.63210        1.10155       -0.38972
C          6.89814        0.23936       -0.29993
C          5.90110        2.61191       -0.36820
C          6.62601       -1.27062       -0.27942
C          4.63289        3.47237       -0.44439
C          7.88999       -2.13386       -0.16990
C          4.90238        4.98012       -0.39666
C          7.61501       -3.64263       -0.10873
C          3.62941        5.82585       -0.45440
C          8.87629       -4.50667        0.02748
C          3.89953        7.30716       -0.61278
C          8.59879       -6.01270        0.11905
C          9.85749       -6.87355        0.27825
C          9.56687       -8.37232        0.38255
H          5.08335        0.84364       -1.31514
H          4.95196        0.84015        0.44326
H          7.46648        0.52030        0.60667
H          7.56110        0.47711       -1.15355
H          6.46294        2.87085        0.54878
H          6.56767        2.87394       -1.21144
H          6.07190       -1.55324       -1.19436
H          5.94892       -1.50560        0.56390
H          4.08693        3.23231       -1.37636
H          3.95166        3.19181        0.38145
H          8.46006       -1.83103        0.72860
H          8.55285       -1.91976       -1.02997
H          5.45926        5.23352        0.52300
H          5.55637        5.27887       -1.23277
H          7.06102       -3.94978       -1.01585
H          6.93657       -3.85217        0.74021
H          3.00580        5.53154       -1.31988
H          2.98977        5.68049        0.43137
H          9.44060       -4.18643        0.92367
H          9.54605       -4.31239       -0.83194
H          8.04777       -6.33947       -0.78324
H          7.91796       -6.20526        0.97027
H         10.41139       -6.54242        1.17613
H         10.53543       -6.68905       -0.57583
H         10.49445       -8.95472        0.49887
H          9.05038       -8.74594       -0.51811
H          8.92242       -8.59771        1.24957
O          4.90459        7.79669       -1.06564
O          2.85033        8.05397       -0.20843
H          3.09447        8.98221       -0.36779
