19
N-NITROSODIETHANOLAMINE.gamout	Energy:    -492.8873317
O          3.09841       -1.58067       -0.13783
O         -3.03049       -1.18640       -0.39998
O         -0.84469        2.40391        0.09004
N          0.16230        0.53815        0.49750
N          0.22733        1.84635        0.23814
C          1.43160       -0.13825        0.69097
C         -1.12119       -0.12939        0.66685
C          1.87055       -0.99115       -0.49869
C         -1.80702       -0.53407       -0.64916
H          1.37760       -0.77536        1.58952
H          2.18739        0.63855        0.87139
H         -1.78126        0.57196        1.20388
H         -0.96526       -1.02122        1.29079
H          1.95744       -0.33759       -1.39036
H          1.09749       -1.75487       -0.72456
H         -1.17234       -1.25069       -1.19508
H         -1.92617        0.36167       -1.28532
H          3.43896       -2.08553       -0.88673
H         -3.67533       -0.52388       -0.11862
