31
N-NONYLAMINE.gamout	Energy:    -409.7727743
C         86.98335       10.04568        0.00974
C         85.67314        9.24632        0.00410
C         85.87081        7.72490        0.00287
C         86.78949       11.56736        0.01219
C         84.56352        6.92216       -0.00296
C         88.09924       12.36240        0.01309
C         84.76486        5.40270       -0.00402
C         87.90157       13.87878        0.02356
C         83.45727        4.60884       -0.01014
N         89.18533       14.57229       -0.02334
H         87.58209        9.75354        0.89319
H         87.58805        9.75705       -0.87062
H         85.07426        9.53733       -0.87964
H         85.06772        9.53494        0.88428
H         86.47010        7.43474        0.88666
H         86.47641        7.43694       -0.87732
H         86.19137       11.86107       -0.87096
H         86.18649       11.85717        0.89346
H         83.96346        7.21034       -0.88706
H         83.95650        7.20810        0.87717
H         88.70227       12.07356        0.89602
H         88.70824       12.10020       -0.87005
H         85.36432        5.11465        0.87945
H         85.37088        5.11683       -0.88373
H         87.32318       14.17079       -0.87187
H         87.26845       14.15251        0.89872
H         83.64541        3.52336       -0.01080
H         82.84826        4.84064       -0.90082
H         82.84077        4.83810        0.87608
H         89.04346       15.58218       -0.05087
H         89.70991       14.39106        0.83441
