39
N-NONYLBENZENE.gamout	Energy:    -585.2400340
C         19.58988        9.40478       -1.34396
C         18.12153        9.78941       -1.60679
C         17.12429        8.94229       -0.84826
C         20.59249       10.24084       -2.14751
C         16.44316        7.89064       -1.47773
C         16.87815        9.16639        0.51538
C         22.06174        9.88681       -1.88231
C         15.54324        7.08909       -0.77138
C         15.98283        8.36637        1.22712
C         23.05898       10.69504       -2.72320
C         15.31008        7.32299        0.58528
C         24.53153       10.36290       -2.44803
C         25.52275       11.15546       -3.30931
C         26.99475       10.83632       -3.02704
C         27.97149       11.62819       -3.89852
H         19.72983        8.33321       -1.57548
H         19.80011        9.50685       -0.26360
H         17.97781       10.85261       -1.34279
H         17.91664        9.70925       -2.68809
H         20.37944       10.12168       -3.22691
H         20.43021       11.31363       -1.92967
H         16.61491        7.70186       -2.54131
H         17.39052        9.98705        1.02581
H         22.21632        8.80752       -2.07105
H         22.28312       10.03560       -0.80846
H         15.01997        6.27927       -1.28567
H         15.80520        8.56150        2.28771
H         22.84570       10.53018       -3.79652
H         22.88950       11.77482       -2.54961
H         14.60498        6.69931        1.13967
H         24.69614        9.28015       -2.60746
H         24.75303       10.54293       -1.37891
H         25.31048       10.96584       -4.37884
H         25.35041       12.23864       -3.15977
H         27.21329       11.03144       -1.96078
H         27.16803        9.75377       -3.17316
H         27.85216       12.71551       -3.75167
H         27.81364       11.42276       -4.97122
H         29.01728       11.37514       -3.66329
