29
N-NONANE.gamout	Energy:    -354.5006682
C          6.83698        0.88505        1.57754
C          5.82062        1.92861        2.05820
C          4.44539        1.82732        1.38601
C          8.20122        0.97633        2.27216
C          3.44107        2.88564        1.85793
C          9.22642       -0.05146        1.78009
C          2.05372        2.76676        1.21763
C         10.57807        0.04234        2.49040
C          1.06765        3.83798        1.68638
H          6.97960        0.99017        0.48520
H          6.41683       -0.12785        1.72640
H          6.23315        2.94137        1.88780
H          5.69952        1.83961        3.15459
H          4.02264        0.81999        1.56296
H          4.57158        1.90785        0.28952
H          8.06538        0.85969        3.36434
H          8.61331        1.99403        2.13178
H          3.85029        3.89329        1.65152
H          3.34083        2.82752        2.95876
H          9.37345        0.07516        0.69141
H          8.81074       -1.06830        1.90780
H          1.63744        1.76446        1.43049
H          2.15720        2.81697        0.11759
H         11.03473        1.03754        2.35372
H         11.28942       -0.70501        2.10456
H         10.47542       -0.12482        3.57630
H          0.07985        3.71218        1.21539
H          1.42707        4.85179        1.43942
H          0.92194        3.80020        2.77965
