29
N-OCTYL_FORMATE.gamout	Energy:    -503.5667989
C          0.50050       18.89940        0.57105
O          0.74801       19.67053       -0.50132
O          0.66150       17.71596        0.57883
C          0.57298       21.08475       -0.38819
C          1.91048       21.80266       -0.24441
C          1.76673       23.32880       -0.22461
C          3.10031       24.07507       -0.08698
C          5.48645       28.61351        0.21962
C          4.15391       27.87528        0.08234
C          4.29457       26.34943        0.06547
C          2.96218       25.60293       -0.07081
H          0.11779       19.48673        1.44427
H          0.05344       21.40647       -1.30511
H         -0.09212       21.31252        0.46598
H          2.40613       21.45608        0.68067
H          2.56167       21.49080       -1.07957
H          1.25890       23.65616       -1.15120
H          1.09669       23.62391        0.60489
H          3.60808       23.74517        0.83883
H          3.76884       23.77764       -0.91653
H          5.34167       29.70550        0.22961
H          6.00400       28.33877        1.15454
H          6.16817       28.37714       -0.61523
H          3.64376       28.20346       -0.84224
H          3.48530       28.16945        0.91258
H          4.80427       26.02176        0.99155
H          4.96503       26.05485       -0.76414
H          2.45329       25.93207       -0.99665
H          2.29329       25.90034        0.75905
