86
N-OCTACOSANE.gamout	Energy:   -1100.3499745
C          5.35083        3.69456       11.50718
C          5.28066        5.17837       11.11431
C          5.48882        5.53946        9.63566
C          6.72504        3.01289       11.36053
C          4.49218        4.92707        8.64017
C          7.01554        2.37376        9.99553
C          3.03435        5.34952        8.85645
C          8.39478        1.70487        9.87535
C          2.06164        4.90513        7.75307
C          8.58940        0.45609       10.74654
C          1.87020        3.38920        7.62508
C          9.91321       -0.30552       10.53750
C          0.74645        2.96198        6.66763
C         11.10631        0.12681       11.40589
C          0.91235        3.35441        5.19055
C         11.67783        1.52857       11.15176
C          2.12398        2.72880        4.49031
C         12.96018        1.82697       11.94193
C          2.27782        3.08762        3.00277
C         13.54355        3.22733       11.69574
C          1.19752        2.51908        2.07282
C         14.82802        3.52560       12.48329
C          1.42301        2.83522        0.58882
C         15.41599        4.92163       12.23122
C          0.35273        2.25879       -0.34588
C         16.69926        5.21432       13.01783
C          0.58943        2.57824       -1.82327
C         17.27985        6.60603       12.75632
H          4.58801        3.11428       10.95633
H          5.04801        3.63331       12.56569
H          4.30601        5.57434       11.44735
H          6.03378        5.72799       11.70743
H          6.51251        5.26714        9.32788
H          5.44376        6.64017        9.54882
H          6.80567        2.23322       12.13638
H          7.51932        3.74565       11.59917
H          4.57055        3.82649        8.65957
H          4.80154        5.22757        7.62306
H          6.93315        3.13780        9.20532
H          6.22587        1.63070        9.77353
H          2.99585        6.45182        8.93016
H          2.67489        4.97213        9.83108
H          8.55724        1.42178        8.81994
H          9.17525        2.45264       10.10216
H          2.39922        5.32569        6.78805
H          1.07718        5.36798        7.94992
H          7.75179       -0.23392       10.54032
H          8.49362        0.71839       11.81597
H          2.81821        2.91137        7.32261
H          1.63704        2.97719        8.62360
H         10.20076       -0.26601        9.46955
H          9.72961       -1.37166       10.75000
H          0.63271        1.86436        6.72974
H         -0.20895        3.38013        7.03287
H         11.91582       -0.60959       11.25290
H         10.82378        0.03543       12.47199
H         -0.00908        3.05516        4.66280
H          0.96200        4.45466        5.09386
H         10.92205        2.29391       11.40230
H         11.87589        1.64640       10.06948
H          3.04606        3.03621        5.01292
H          2.07663        1.62781        4.59683
H         12.75668        1.70437       13.02292
H         13.72691        1.06740       11.69749
H          2.31547        4.18864        2.89477
H          3.26359        2.72408        2.66101
H         12.78049        3.98872       11.94623
H         13.74184        3.35175       10.61403
H          0.20438        2.89911        2.37404
H          1.15094        1.42125        2.20676
H         15.59172        2.76257       12.23988
H         14.62587        3.40758       13.56498
H          1.47240        3.93231        0.44961
H          2.41454        2.45279        0.27909
H         15.61790        5.04105       11.14954
H         14.65673        5.68833       12.47760
H          0.30532        1.16189       -0.21206
H         -0.64109        2.63803       -0.04335
H         16.49820        5.09835       14.09914
H         17.45928        4.44893       12.77380
H          0.60002        3.66659       -2.00536
H          1.55554        2.17632       -2.17366
H         -0.19902        2.14422       -2.45807
H         18.20003        6.77201       13.33839
H         16.56532        7.40071       13.03123
H         17.53214        6.74413       11.69095
