56
N-OCTADECANE.gamout	Energy:    -707.8069522
C          8.08381        4.20567       -0.43848
C          7.05187        3.75839        0.60542
C          5.76364        3.17893        0.00538
C          9.37198        4.78505        0.16183
C          4.73154        2.73206        1.04947
C         10.40463        5.23215       -0.88177
C          3.44185        2.15435        0.44995
C         11.69416        5.80978       -0.28167
C          2.40878        1.70839        1.49398
C         12.72775        6.25588       -1.32519
C          1.11749        1.13362        0.89461
C         14.01888        6.83041       -0.72522
C          0.08383        0.68792        1.93692
C         15.05308        7.27615       -1.76698
C         -1.20555        0.11691        1.33458
C         16.34218        7.84695       -1.16402
C         -2.22940       -0.32661        2.38134
C         17.36635        8.29040       -2.21044
H          8.33883        3.34668       -1.08769
H          7.62391        4.95857       -1.10661
H          7.51174        3.00553        1.27363
H          6.79678        4.61739        1.25459
H          6.01846        2.32011       -0.64411
H          5.30410        3.93220       -0.66261
H          9.11699        5.64382        0.81134
H          9.83133        4.03170        0.82988
H          4.47760        3.59120        1.69890
H          5.19101        1.97862        1.71734
H         10.65879        4.37312       -1.53130
H          9.94548        5.98574       -1.54970
H          3.69512        1.29557       -0.20025
H          2.98327        2.90872       -0.21752
H         12.15238        5.05527        0.38590
H         11.44071        6.66854        0.36850
H          2.86703        0.95350        2.16106
H          2.15655        2.56750        2.14416
H         12.98015        5.39692       -1.97549
H         12.26986        7.01096       -1.99232
H          1.36872        0.27493        0.24343
H          0.65986        1.88946        0.22812
H         13.76745        7.68904       -0.07404
H         14.47617        6.07441       -0.05867
H         -0.16947        1.54535        2.58915
H          0.53890       -0.07007        2.60296
H         14.59840        8.03425       -2.43314
H         15.30666        6.41884       -2.41928
H         -0.95368       -0.73968        0.68210
H         -1.66139        0.87431        0.66993
H         16.09017        8.70351       -0.51155
H         16.79772        7.08942       -0.49933
H         -3.13871       -0.72969        1.90806
H         -1.81942       -1.11355        3.03738
H         -2.53517        0.51398        3.02759
H         17.67211        7.44978       -2.85663
H         16.95670        9.07746       -2.86651
H         18.27551        8.69322       -1.73679
