39
N-OCTYLCYCLOPENTANE.gamout	Energy:    -510.3187993
C          0.10782        2.56681        1.71973
C          0.52264        2.35945        3.20352
C          1.41782        2.85368        0.96707
C          2.07049        2.32951        3.21047
C          2.48635        2.07208        1.75033
C          3.93252        2.44033        1.40182
C          5.00172        1.62031        2.13734
C          8.46573        3.43600        1.51387
C          6.99820        3.27002        1.93167
C          9.04795        4.83364        1.76779
C          6.44297        1.86379        1.66460
C         11.09532        6.37281        1.59629
C         10.51436        4.97986        1.34492
H         -0.35805        1.64860        1.32406
H         -0.63126        3.37288        1.59480
H          0.10553        1.41786        3.59534
H          0.13902        3.16169        3.85296
H          1.37093        2.57345       -0.09747
H          1.65785        3.93251        1.00833
H          2.47180        3.31006        3.52513
H          2.47107        1.58107        3.91064
H          2.34018        0.99405        1.53511
H          4.07660        2.31275        0.31281
H          4.07980        3.51758        1.60494
H          4.94040        1.81549        3.22394
H          4.77215        0.54698        2.01000
H          9.08188        2.68740        2.04774
H          8.56265        3.19380        0.43825
H          6.89702        3.50005        3.00976
H          6.38761        4.02361        1.40181
H          8.43994        5.58740        1.23175
H          8.95451        5.08000        2.84291
H          7.10145        1.12743        2.15968
H          6.50828        1.64610        0.58117
H         12.14744        6.43156        1.27488
H         10.53621        7.14938        1.04639
H         11.05980        6.64022        2.66642
H         10.60654        4.73328        0.27082
H         11.12287        4.22766        1.88071
