26
N-OCTANE.gamout	Energy:    -315.2442859
C          3.85782        2.38359        1.67255
C          2.82890        3.03903        2.60242
C          1.37081        2.74011        2.23602
C          5.31564        2.66875        2.05143
C          0.34631        3.40847        3.15979
C          6.34268        2.02487        1.11332
C         -1.10599        3.09374        2.79852
C          7.79428        2.30425        1.50579
H          3.67766        2.72230        0.63439
H          3.69278        1.28939        1.66158
H          2.98703        4.13431        2.60562
H          3.01712        2.70843        3.64180
H          1.20890        1.64528        2.24697
H          1.18125        3.05874        1.19300
H          5.49936        2.31830        3.08523
H          5.48086        3.76289        2.07426
H          0.50239        4.50317        3.14229
H          0.54279        3.09652        4.20260
H          6.16484        2.38187        0.08175
H          6.17220        0.93258        1.08412
H         -1.80928        3.59520        3.48231
H         -1.34825        3.42333        1.77345
H         -1.30803        2.01012        2.85030
H          8.02066        1.92082        2.51563
H          8.49966        1.82943        0.80540
H          8.00942        3.38658        1.51088
