17
N-PENTANE.gamout	Energy:    -197.4756260
C          3.74923        2.41053        2.89590
C          2.60400        1.47736        2.49106
C          1.82924        1.93981        1.25218
C          4.52326        1.93347        4.12583
C          0.67929        1.00925        0.86631
H          3.34177        3.42099        3.08539
H          4.44410        2.52374        2.04299
H          1.90169        1.37269        3.34037
H          3.00733        0.46233        2.31082
H          2.53066        2.03544        0.40244
H          1.43674        2.95817        1.43099
H          5.33469        2.63025        4.38973
H          3.86413        1.84314        5.00643
H          4.97893        0.94273        3.95620
H         -0.05938        0.92175        1.68164
H          1.04177       -0.00906        0.64369
H          0.14493        1.37264       -0.02596
