26
N-PERFLUOROOCTANE.gamout	Energy:   -2099.5682631
F          1.24573        0.58633        1.09708
F          1.24538        0.58627       -1.09679
F         -1.24552       -0.58628       -1.09706
F         -1.24537       -0.58629        1.09680
F          0.92631       -2.14886       -1.09678
F          0.92597       -2.14855        1.09691
F         -0.92618        2.14809        1.09688
F         -0.92574        2.14785       -1.09677
F          3.41604       -0.99057       -1.09690
F          3.41608       -0.99079        1.09646
F         -3.41592        0.99094        1.09679
F         -3.41568        0.99116       -1.09653
F          4.85156       -2.96205       -0.00001
F          3.13791       -3.71856        1.08507
F          3.13793       -3.71855       -1.08496
F         -4.85179        2.96219       -0.00016
F         -3.13806        3.71871       -1.08506
F         -3.13828        3.71865        1.08498
C          0.78999       -0.04378        0.00011
C         -0.79012        0.04384       -0.00004
C          1.37323       -1.51097        0.00002
C         -1.37343        1.51080        0.00005
C          2.93874       -1.60246       -0.00015
C         -2.93876        1.60284        0.00012
C          3.52295       -3.05235       -0.00001
C         -3.52319        3.05256       -0.00003
