18
N-PENTANOL.gamout	Energy:    -272.5970118
C          1.41692        1.99443        1.75180
C          2.77942        1.68863        1.12621
C          3.92760        1.64039        2.14069
C          0.27867        2.04170        0.74231
C          5.28881        1.33474        1.51284
O         -0.92069        2.32996        1.43295
H          1.44639        2.96413        2.28004
H          1.16558        1.23659        2.51518
H          2.72964        0.72189        0.58992
H          3.00980        2.44872        0.35559
H          3.97645        2.60587        2.67706
H          3.69712        0.88140        2.91083
H          0.21767        1.06894        0.20835
H          0.50000        2.81118       -0.02837
H          5.28503        0.35739        1.00070
H          5.56744        2.09671        0.76485
H          6.08558        1.30873        2.27304
H         -1.64178        2.35921        0.79283
