26
N-PENTYL_PROPIONATE.gamout	Energy:    -464.3299208
O         51.82122       29.21615       -0.69248
C         51.22348       29.99307        0.23403
C         49.97340       30.64116       -0.32495
O         51.63760       30.13448        1.35938
C         53.01438       28.52031       -0.29647
C         49.29025       31.57738        0.66504
C         54.26165       29.38127       -0.46589
C         55.53978       28.64148       -0.06018
C         56.81348       29.47903       -0.21699
C         58.08316       28.75010        0.22760
H         50.25848       31.16021       -1.25625
H         49.30287       29.82471       -0.64585
H         52.90810       28.19621        0.75041
H         53.05622       27.63166       -0.94484
H         48.37233       31.99972        0.22940
H         49.02388       31.04450        1.59011
H         49.95380       32.40905        0.94718
H         54.32808       29.70966       -1.51853
H         54.14537       30.29061        0.14799
H         55.44837       28.31140        0.99165
H         55.63782       27.71640       -0.65985
H         56.91698       29.78717       -1.27391
H         56.70309       30.41578        0.35939
H         58.97581       29.38181        0.09572
H         58.03123       28.46512        1.29227
H         58.24103       27.82574       -0.35413
