77
N-PENTACOSANE.gamout	Energy:    -982.5912543
C         12.55762        6.25218        2.75128
C         11.04462        6.38417        2.98998
C         10.22211        6.90303        1.80215
C         12.97586        5.17293        1.74662
C          8.72794        7.05655        2.11890
C         14.49171        5.07303        1.51241
C          7.88413        7.58173        0.94922
C         15.35102        4.66511        2.72039
C          6.39232        7.78527        1.26242
C         15.05399        3.26885        3.27983
C          5.59642        6.50450        1.55025
C         15.96418        2.81840        4.43449
C          4.09534        6.74508        1.77094
C         17.42795        2.55215        4.05757
C          3.28895        5.47288        2.07069
C         18.27778        2.01774        5.21957
C          1.78974        5.72342        2.28473
C         19.74126        1.73144        4.85249
C          0.93924        4.46489        2.52171
C         20.58431        1.18139        6.01111
C          1.22508        3.72765        3.83477
C         22.04303        0.89061        5.64051
C          0.37273        2.47214        4.06740
C         22.87185        0.33507        6.80037
C         -1.12272        2.73375        4.25739
H         13.03456        6.04686        3.72532
H         12.96165        7.22780        2.41895
H         10.89145        7.06371        3.84746
H         10.64020        5.40439        3.30904
H         10.62981        7.87989        1.47866
H         10.34189        6.22496        0.93734
H         12.49761        5.37258        0.77235
H         12.58002        4.19452        2.07560
H          8.33165        6.08090        2.45386
H          8.61018        7.74194        2.98015
H         14.85752        6.04624        1.13758
H         14.66911        4.35251        0.69367
H          8.30327        8.54757        0.61426
H          7.98487        6.89509        0.08690
H         15.24142        5.41170        3.52858
H         16.40856        4.71656        2.40966
H          6.29411        8.47331        2.12372
H          5.92524        8.30731        0.40803
H         14.00999        3.23184        3.63557
H         15.11554        2.53087        2.45656
H          5.73557        5.79548        0.71191
H          6.00952        6.00031        2.44302
H         15.92852        3.57189        5.24477
H         15.53814        1.89545        4.86748
H          3.67080        7.24536        0.87927
H          3.96451        7.46058        2.60506
H         17.45844        1.82514        3.22344
H         17.89074        3.47749        3.66891
H          3.71566        4.98289        2.96492
H          3.41996        4.75294        1.24038
H         18.24980        2.74077        6.05712
H         17.81416        1.09123        5.60880
H          1.38998        6.25431        1.40196
H          1.65464        6.41716        3.13651
H         20.20991        2.65856        4.47126
H         19.77044        1.01248        4.01147
H          1.07976        3.76403        1.67642
H         -0.12304        4.76133        2.49269
H         20.11558        0.25431        6.39296
H         20.56126        1.89826        6.85424
H          2.28778        3.43219        3.86479
H          1.08132        4.42489        4.68271
H         22.51441        1.81727        5.26358
H         22.06796        0.17632        4.79651
H          0.75881        1.94904        4.95969
H          0.51898        1.77194        3.22353
H         23.91116        0.13877        6.49318
H         22.90355        1.04048        7.64846
H         22.45189       -0.61293        7.17785
H         -1.58605        3.17396        3.35930
H         -1.66308        1.79941        4.47783
H         -1.30517        3.42718        5.09662
