27
N-PENTYLBENZENE.gamout	Energy:    -428.2151323
C          4.07047        2.49628        1.23224
C          5.02493        3.22117        2.20086
C          6.34077        3.61711        1.57022
C          2.73969        2.08638        1.87195
C          6.49644        4.86222        0.94343
C          7.43005        2.73287        1.56278
C          1.78618        1.36255        0.91459
C          7.69926        5.21283        0.32656
C          8.63515        3.07801        0.94831
C          0.46184        0.95396        1.56183
C          8.77439        4.32118        0.32624
H          4.57904        1.60089        0.83063
H          3.87906        3.15098        0.36260
H          4.52009        4.12068        2.59450
H          5.22120        2.56955        3.06998
H          2.94186        1.43650        2.74465
H          2.23537        2.98525        2.27531
H          5.66270        5.57013        0.94298
H          7.33336        1.75923        2.05178
H          1.58404        2.01274        0.04343
H          2.29006        0.46481        0.51101
H          7.79847        6.19010       -0.15223
H          9.47139        2.37469        0.95886
H         -0.19377        0.43636        0.84387
H          0.62330        0.27288        2.41498
H         -0.08929        1.83104        1.94244
H          9.71746        4.59457       -0.15228
