33
N-PENTYLCYCLOHEXANE.gamout	Energy:    -431.8172739
C          0.98991       -0.26045       -0.21395
C          1.42642        1.11437        0.32050
C          2.04953       -1.31822        0.14436
C         -0.41183       -0.68694        0.26137
C          2.83197        1.50638       -0.15139
C          3.45439       -0.93373       -0.33213
C          3.86909        0.43813        0.20647
C         -1.58235        0.19122       -0.20573
C         -2.95894       -0.36078        0.18909
C         -4.13923        0.49455       -0.28569
C         -5.50403       -0.08265        0.09449
H          0.95920       -0.18918       -1.32053
H          1.40554        1.08988        1.42738
H          0.70486        1.88821        0.01411
H          1.75794       -2.29355       -0.28044
H          2.06247       -1.45142        1.24336
H         -0.41532       -0.74344        1.36743
H         -0.59299       -1.72087       -0.08707
H          3.11831        2.47823        0.28351
H          2.82222        1.64902       -1.24837
H          3.47440       -0.91368       -1.43792
H          4.18087       -1.70265       -0.02232
H          4.86164        0.72138       -0.18083
H          3.96835        0.38184        1.30689
H         -1.47640        1.21368        0.19893
H         -1.54014        0.29789       -1.30655
H         -3.06816       -1.38452       -0.21679
H         -3.00940       -0.47047        1.28929
H         -4.04275        1.51492        0.12913
H         -4.08385        0.61204       -1.38402
H         -5.64963       -1.08764       -0.33708
H         -6.32628        0.55524       -0.26677
H         -5.61272       -0.17566        1.18873
