30
N-PENTYLCYCLOPENTANE.gamout	Energy:    -392.5467716
C          0.82642        1.43681        2.97887
C          1.18392        0.85558        4.35772
C          1.65024        1.84479        5.43684
C          1.97378        1.94547        2.09182
C          1.60772        1.25054        6.85816
C          3.10381        2.38663        5.31212
C          2.95439        0.86552        1.62329
C          2.47336        2.20144        7.68551
C          3.66560        2.49431        6.75738
C          4.03906        1.39614        0.68422
H          0.10415        2.26037        3.12683
H          0.27924        0.65971        2.41431
H          0.27665        0.35625        4.74051
H          1.93935        0.05465        4.25232
H          0.95821        2.70816        5.42363
H          2.53074        2.74751        2.60767
H          1.52596        2.42110        1.20021
H          2.05840        0.23968        6.85228
H          0.58028        1.14636        7.24126
H          3.12592        3.35955        4.79761
H          3.72170        1.70033        4.71050
H          3.43530        0.38989        2.49637
H          2.38832        0.06275        1.11502
H          2.77780        1.78317        8.65686
H          1.91074        3.12953        7.89202
H          4.12471        3.47387        6.96286
H          4.45357        1.73888        6.91470
H          3.60276        1.84580       -0.22451
H          4.72191        0.59389        0.36160
H          4.65055        2.17473        1.17246
