20
N-PENTYL_FORMATE.gamout	Energy:    -385.7979085
C          3.77934        0.38634        0.45641
C          2.41632       -0.24640        0.19701
C          2.46806       -1.77612        0.12965
O          3.67428        1.80445        0.60612
C          1.10266       -2.42272       -0.12962
C          4.02420        2.59218       -0.42479
C          1.14981       -3.95023       -0.19491
O          3.92430        3.78225       -0.40391
H          4.21546        0.00825        1.39483
H          4.48755        0.14702       -0.35908
H          2.00838        0.16022       -0.74611
H          1.72704        0.07670        0.99661
H          2.88419       -2.16965        1.07598
H          3.17389       -2.08862       -0.66310
H          0.68891       -2.02552       -1.07452
H          0.39794       -2.10854        0.66181
H          4.42693        2.01096       -1.29308
H          0.15046       -4.37217       -0.38486
H          1.51955       -4.38394        0.74962
H          1.81632       -4.29997       -1.00167
