19
N-PENTYLAMINE.gamout	Energy:    -252.7477917
C         51.98138       10.04784        0.01389
C         50.67470        9.24912        0.00731
C         50.87535        7.72984        0.00198
C         51.78051       11.56366        0.02733
C         49.56766        6.93600       -0.01025
N         53.06301       12.26038       -0.01476
H         52.58249        9.75790        0.89773
H         52.59290        9.78892       -0.86847
H         50.07765        9.54093       -0.87738
H         50.06688        9.53299        0.88742
H         51.47246        7.43964        0.88624
H         51.48383        7.44766       -0.87692
H         51.20418       11.85624       -0.86919
H         51.14461       11.83409        0.90140
H         49.75535        5.85033       -0.01333
H         48.96184        7.17051       -0.90235
H         48.94823        7.16292        0.87458
H         52.91873       13.27006       -0.04045
H         53.58541       12.07858        0.84424
