23
N-PROPYL_ISOBUTYRATE.gamout	Energy:    -425.0733130
C         -5.76475       -0.35623        0.05100
C         -4.40937        0.28359       -0.25049
H         -6.59082        0.32148       -0.21423
H         -5.86631       -0.60095        1.12167
H         -5.90623       -1.29075       -0.51755
C         -3.24969       -0.62911        0.10713
H         -4.29902        1.22991        0.30700
H         -4.33710        0.54455       -1.32056
C         -0.87918       -0.60126        0.04950
C          0.33676        0.23155       -0.33314
C          1.62288       -0.56433       -0.12051
H          1.75582       -0.81675        0.94322
H          2.49581        0.01951       -0.45057
H          1.60264       -1.51088       -0.67962
C          0.34262        1.57442        0.41625
H          0.21349        0.45135       -1.40998
H         -0.57940        2.14089        0.22512
H          1.19912        2.18601        0.09351
H          0.43264        1.41730        1.50426
O         -2.02800        0.05400       -0.20766
H         -3.28762       -1.57845       -0.45431
H         -3.25035       -0.89288        1.17867
O         -0.84862       -1.71272        0.52097
