10
N-PROPIONALDEHYDE.gamout	Energy:    -192.8836118
C          0.58873        1.23101        0.74136
O          0.03299        1.98653       -0.01437
C          2.07479        0.94554        0.74633
C          2.66006        0.80410        2.15292
H          0.00082        0.65906        1.51334
H          2.20817       -0.00269        0.18872
H          2.57221        1.73158        0.15584
H          3.72719        0.53898        2.11102
H          2.57195        1.74291        2.72387
H          2.14346        0.01522        2.72463
