18
N-PROPYLCYCLOPROPANE.gamout	Energy:    -235.4947676
C          2.45201        1.15570        2.32925
C          2.11797        1.99864        1.08930
C          2.22933        1.85493        3.65632
C          3.01038        3.22607        0.89408
C          1.90997        1.05964        4.89680
C          0.84806        1.92209        4.25918
H          3.50481        0.82023        2.26917
H          1.83850        0.23742        2.30712
H          1.06165        2.31896        1.14679
H          2.19489        1.35278        0.19692
H          2.85661        2.73935        3.81947
H          2.90889        3.94459        1.72382
H          4.07511        2.94239        0.82968
H          2.75251        3.75977       -0.03445
H          1.81552       -0.02673        4.79723
H          2.33837        1.38256        5.85012
H          0.54293        2.83768        4.77372
H          0.03415        1.41977        3.72575
