13
N-PROPYLAMINE.gamout	Energy:    -174.2353778
C          3.37547        1.69492        1.08801
C          2.12730        0.99854        1.63018
C          0.85214        1.82255        1.45535
N          4.55757        0.85264        1.24147
H          3.23317        1.89296        0.00989
H          3.46101        2.69540        1.57169
H          2.03048        0.02137        1.12674
H          2.28003        0.77498        2.70323
H          0.65403        2.03202        0.39041
H         -0.02787        1.29678        1.85855
H          0.92504        2.79354        1.97418
H          5.37640        1.31113        0.84112
H          4.76829        0.72470        2.23307
