24
N-PROPYLCYCLOPENTANE.gamout	Energy:    -314.0364258
C          1.85609        1.16449        1.55728
C          2.73198        2.35496        1.96339
C          3.93392        2.61633        1.03543
C          0.64050        0.95761        2.46433
C          4.68750        3.91659        1.37704
C          5.05952        1.56995        1.15416
C          5.66419        3.54116        2.51380
C          5.90249        2.01208        2.37097
H          1.51420        1.30928        0.51556
H          2.46169        0.24067        1.54835
H          2.10648        3.26629        1.97816
H          3.07730        2.21333        3.00514
H          3.55054        2.65633        0.00107
H          0.03692        0.09805        2.13264
H         -0.01608        1.84451        2.46709
H          0.94125        0.76903        3.50927
H          4.01273        4.74432        1.64696
H          5.25452        4.24290        0.48906
H          5.67378        1.60654        0.23874
H          4.68921        0.53736        1.24350
H          5.23114        3.77751        3.49934
H          6.60009        4.11637        2.44231
H          6.96651        1.76752        2.22908
H          5.58691        1.48123        3.28424
