21
N-PROPYL_METHACRYLATE.gamout	Energy:    -423.8515601
C         86.99331       31.07470       -0.10043
C         85.73710       30.26064       -0.08110
O         84.72477       30.81840       -0.77256
O         85.64600       29.20142        0.49951
C         88.14600       30.46594        0.64652
C         87.04789       32.25210       -0.74072
C         83.47783       30.10815       -0.81131
C         82.59449       30.42748        0.38931
C         81.23328       29.73810        0.29001
H         87.88421       30.30203        1.70440
H         88.39933       29.47414        0.23789
H         89.03559       31.10893        0.59527
H         87.96707       32.84396       -0.74885
H         86.17943       32.64912       -1.26725
H         82.99874       30.43429       -1.74718
H         83.68107       29.02744       -0.86552
H         83.11472       30.10673        1.30679
H         82.46551       31.52163        0.45483
H         80.60209       29.97690        1.15978
H         80.68501       30.05410       -0.61369
H         81.33860       28.64112        0.24923
