27
N-PROPYLCYCLOHEXANE.gamout	Energy:    -353.3044908
C         -3.58325        7.40808        3.04117
C         -2.56610        6.29753        3.33132
C         -1.93530        5.76361        2.04202
H         -3.07267        5.46819        3.85960
H         -1.78527        6.67009        4.01522
C         -4.67706        6.96990        2.04866
H         -3.05308        8.28644        2.62466
H         -4.04926        7.74794        3.98190
C         -4.02678        6.42467        0.76584
H         -5.23029        6.13189        2.52069
C         -5.69000        8.09938        1.78381
C         -3.00937        5.31268        1.04843
H         -3.52054        7.25879        0.24219
H         -4.79847        6.04844        0.07567
H         -2.54404        4.98088        0.10552
H         -3.53810        4.43190        1.45939
H         -1.24651        4.93220        2.26472
H         -1.32224        6.56091        1.58062
C         -6.92133        7.70965        0.95406
H         -5.16910        8.94385        1.29145
H         -6.03522        8.49137        2.75858
C         -7.92931        8.84867        0.78673
H         -7.42026        6.84603        1.43204
H         -6.60566        7.35882       -0.04399
H         -8.30643        9.20225        1.76179
H         -8.79961        8.52860        0.19174
H         -7.47863        9.71591        0.27457
