14
N-PROPYL_FORMATE.gamout	Energy:    -307.2921934
O         -1.50370        0.34525        1.82105
C         -0.08460        0.56228        1.93623
C          0.32519        0.25160        3.36422
C         -2.06469        0.63444        0.64350
C          1.82625        0.43905        3.59004
O         -1.49066        1.04921       -0.32701
H          0.14225        1.60643        1.66231
H          0.43630       -0.08281        1.20785
H          0.02554       -0.78367        3.60218
H         -0.24933        0.90404        4.04439
H         -3.15614        0.43028        0.70002
H          2.41962       -0.22053        2.93464
H          2.10004        0.20732        4.63060
H          2.13695        1.47788        3.38776
