44
N-TETRADECANE.gamout	Energy:    -550.7816522
C          8.36235       -0.32502       -0.00004
C          7.07317        0.49851        0.00007
C          5.79799       -0.35230       -0.00005
C          4.50137        0.46622        0.00003
C          3.22345       -0.38255       -0.00003
C          1.92718        0.43791        0.00001
C          0.64865       -0.41033        0.00000
C         -0.64759        0.41044        0.00000
C         -1.92634       -0.43768        0.00003
C         -3.22284        0.38285       -0.00002
C         -4.50148       -0.46561        0.00005
C         -5.79875        0.35251       -0.00005
C         -7.07370       -0.49872        0.00008
C         -8.36340        0.32401       -0.00007
H          8.42515       -0.97601        0.88876
H          8.42520       -0.97571       -0.88907
H          9.25392        0.32247        0.00008
H          7.06400        1.16648        0.88137
H          7.06399        1.16677       -0.88102
H          5.80833       -1.02080       -0.88209
H          5.80827       -1.02103        0.88182
H          4.49401        1.13477        0.88186
H          4.49395        1.13497       -0.88167
H          3.23095       -1.05113       -0.88183
H          3.23089       -1.05127        0.88167
H          1.91993        1.10656        0.88177
H          1.91986        1.10666       -0.88168
H          0.65593       -1.07898       -0.88175
H          0.65587       -1.07904        0.88172
H         -0.65464        1.07913        0.88173
H         -0.65471        1.07914       -0.88173
H         -1.91891       -1.10642       -0.88168
H         -1.91898       -1.10638        0.88178
H         -3.23005        1.05156        0.88170
H         -3.23011        1.05147       -0.88182
H         -4.49390       -1.13439       -0.88165
H         -4.49398       -1.13426        0.88186
H         -5.80921        1.02121        0.88187
H         -5.80928        1.02102       -0.88212
H         -7.06438       -1.16705       -0.88101
H         -7.06443       -1.16680        0.88137
H         -9.25366       -0.32497        0.00005
H         -8.42732        0.97481        0.88883
H         -8.42736        0.97452       -0.88918
