104
N-TETRATRIACONTANE.gamout	Energy:   -1335.9074104
C         22.25737        1.85461        1.95402
C         20.95545        1.27054        1.38966
C         19.68203        1.85251        2.01777
C         23.52943        1.26554        1.32965
C         18.38204        1.26120        1.45619
C         24.83277        1.84250        1.89866
C         17.10568        1.83541        2.08607
C         26.10539        1.24744        1.28014
C         15.80825        1.23694        1.52525
C         27.40889        1.81850        1.85564
C         14.52823        1.80397        2.15483
C         28.68305        1.21831        1.24453
C         13.23394        1.19902        1.59292
C         29.98549        1.78461        1.82773
C         11.95001        1.76002        2.22039
C         31.26182        1.18025        1.22494
C         10.65921        1.14998        1.65558
C         32.56218        1.74288        1.81655
C          9.37150        1.70655        2.27948
C         33.84103        1.13532        1.22224
C          8.08399        1.09333        1.71044
C         35.13880        1.69506        1.82225
C          6.79303        1.64738        2.33000
C         36.42014        1.08508        1.23571
C          5.50827        1.03307        1.75602
C         37.71531        1.64239        1.84327
C          4.21514        1.58622        2.37126
C         38.99838        1.03077        1.26301
C          2.93252        0.97360        1.79341
C         40.29121        1.58499        1.87577
C          1.64183        1.52821        2.40715
C         41.57157        0.97128        1.29761
C          0.36951        0.91245        1.82143
C         42.85403        1.52882        1.91831
H         22.28206        1.69369        3.04856
H         22.25609        2.95230        1.81398
H         20.95987        0.17314        1.53196
H         20.92863        1.42952        0.29492
H         19.71066        1.69170        3.11223
H         19.67482        2.95021        1.87797
H         23.50663        1.42464        0.23481
H         23.52714        0.16808        1.47174
H         18.39308        0.16381        1.59834
H         18.35260        1.42035        0.36153
H         24.83747        2.94019        1.75845
H         24.85223        1.68143        2.99330
H         17.09197        2.93310        1.94667
H         17.13612        1.67459        3.18051
H         26.08862        1.40661        0.18516
H         26.09752        0.14996        1.42203
H         15.77779        1.39625        0.43063
H         15.82529        0.13960        1.66723
H         27.41905        2.91612        1.71505
H         27.42190        1.65753        2.95041
H         14.50872        2.90158        2.01544
H         14.55891        1.64328        3.24929
H         28.67328        1.37746        0.14946
H         28.67028        0.12086        1.38633
H         13.20395        1.35842        0.49831
H         13.25617        0.10175        1.73477
H         30.00026        2.88213        1.68678
H         29.99127        1.62390        2.92261
H         11.97928        1.59957        3.31490
H         11.92593        2.85754        2.08083
H         31.25966        1.33940        0.12982
H         31.24494        0.08284        1.36660
H         10.68525        0.05276        1.79712
H         10.63125        1.30956        0.56092
H         32.58070        2.84031        1.67543
H         32.56051        1.58241        2.91148
H          9.39780        1.54619        3.37407
H          9.34465        2.80399        2.13968
H         33.84650        1.29459        0.12717
H         33.82072        0.03794        1.36367
H          8.05936        1.25329        0.61576
H          8.11193       -0.00392        1.85145
H         35.16042        2.79242        1.68123
H         35.12996        1.53471        2.91717
H          6.76529        2.74479        2.19017
H          6.81570        1.48688        3.42466
H         36.39681       -0.01227        1.37673
H         36.43230        1.24466        0.14074
H          5.48734        1.19372        0.66135
H          5.53650       -0.06428        1.89617
H         37.70037        1.48181        2.93809
H         37.73946        2.73977        1.70284
H          4.23365        1.42504        3.46591
H          4.18737        2.68371        2.23192
H         39.01636        1.19117        0.16822
H         38.97322       -0.06666        1.40312
H          2.95719       -0.12415        1.93233
H          2.91199        1.13546        0.69873
H         40.27476        1.42335        2.97056
H         40.32008        2.68256        1.73656
H          1.61558        2.62504        2.26848
H          1.65861        1.36589        3.50091
H         41.59197        1.13305        0.20385
H         41.54417       -0.12547        1.43674
H          0.34079       -0.17965        1.97720
H         -0.53354        1.33724        2.28750
H          0.29815        1.09098        0.73481
H         42.88756        1.34833        3.00642
H         42.93649        2.61829        1.76356
H         43.74915        1.06279        1.47707
