134
N-TETRATETRACONTANE.gamout	Energy:   -1728.4689363
C          0.63945        0.42555        0.00102
C         -0.63485       -0.42868        0.00076
C         -0.37536       -1.94104        0.00059
C          0.37963        1.93788        0.00112
C         -1.65211       -2.79217        0.00030
C          1.65611        2.78966        0.00126
C         -1.40120       -4.30640        0.00014
C          1.40471        4.30389        0.00136
C         -2.68501       -5.14809       -0.00020
C          2.68828        5.14600        0.00136
C         -2.45014       -6.66524       -0.00033
C          2.45296        6.66314        0.00131
C         -3.74483       -7.49075       -0.00071
C          3.74739        7.48911        0.00121
C         -3.53167       -9.01124       -0.00072
C          3.53371        9.00956        0.00110
C         -4.83918       -9.81689       -0.00111
C          4.84094        9.81569        0.00090
C         -4.65075      -11.34070       -0.00101
C          4.65197       11.33949        0.00066
C         -5.97183      -12.12456       -0.00135
C          5.97277       12.12386        0.00045
C         -5.80954      -13.65161       -0.00116
C          5.80992       13.65095        0.00014
C         -7.14380      -14.41327       -0.00145
C          7.14386       14.41335       -0.00008
C         -7.00684      -15.94334       -0.00114
C          7.00628       15.94345       -0.00043
C         -8.35223      -16.68561       -0.00141
C          8.35137       16.68636       -0.00063
C         -8.23566      -18.21749       -0.00101
C          8.23411       18.21828       -0.00104
C         -9.58977      -18.94396       -0.00125
C          9.58776       18.94582       -0.00120
C         -9.48977      -20.47718       -0.00082
C          9.48659       20.47908       -0.00164
C        -10.85019      -21.19146       -0.00107
C         10.84634       21.19494       -0.00174
C        -10.76519      -22.72432       -0.00061
C         10.75979       22.72777       -0.00222
C        -12.13004      -23.42306       -0.00087
C         12.12391       23.42800       -0.00225
C        -12.04241      -24.94996       -0.00044
C         12.03476       24.95485       -0.00273
H          1.25327        0.16153        0.88326
H          1.25352        0.16172       -0.88111
H         -1.24869       -0.16468       -0.88147
H         -1.24891       -0.16491        0.88292
H          0.23824       -2.20558        0.88281
H          0.23845       -2.20539       -0.88155
H         -0.23410        2.20217       -0.88109
H         -0.23426        2.20211        0.88326
H         -2.26474       -2.52546       -0.88196
H         -2.26506       -2.52581        0.88246
H          2.26895        2.52329        0.88348
H          2.26908        2.52345       -0.88093
H         -0.78951       -4.57520        0.88236
H         -0.78916       -4.57510       -0.88189
H          0.79274        4.57249       -0.88074
H          0.79279        4.57246        0.88351
H         -3.29509       -4.87579       -0.88244
H         -3.29551       -4.87607        0.88187
H          3.29862        4.87402        0.88355
H          3.29870        4.87405       -0.88078
H         -1.84176       -6.94145        0.88182
H         -1.84136       -6.94130       -0.88227
H          1.84426        6.93900       -0.88073
H          1.84432        6.93913        0.88338
H         -4.35104       -7.21006       -0.88292
H         -4.35154       -7.21024        0.88123
H          4.35394        7.20873        0.88330
H          4.35393        7.20868       -0.88087
H         -2.92767       -9.29659        0.88145
H         -2.92718       -9.29662       -0.88256
H          2.92932        9.29457       -0.88092
H          2.92944        9.29484        0.88312
H         -5.44072       -9.52645       -0.88330
H         -5.44133       -9.52654        0.88071
H          5.44292        9.52564        0.88292
H          5.44289        9.52542       -0.88107
H         -4.05171      -11.63609        0.88116
H         -4.05122      -11.63624       -0.88282
H          4.05252       11.63454       -0.88135
H          4.05261       11.63491        0.88262
H         -6.56831      -11.82393       -0.88351
H         -6.56893      -11.82380        0.88036
H          6.56969       11.82352        0.88241
H          6.56965       11.82325       -0.88145
H         -5.21569      -13.95716        0.88102
H         -5.21520      -13.95736       -0.88294
H          5.21566       13.95611       -0.88190
H          5.21573       13.95659        0.88207
H         -7.73519      -14.10272       -0.88359
H         -7.73581      -14.10248        0.88020
H          7.73569       14.10311        0.88187
H          7.73571       14.10276       -0.88190
H         -6.41791      -16.25796        0.88114
H         -6.41742      -16.25836       -0.88296
H          6.41696       16.25778       -0.88255
H          6.41698       16.25828        0.88154
H         -8.93935      -16.36708       -0.88357
H         -8.94004      -16.36671        0.88017
H          8.93895       16.36812        0.88133
H          8.93903       16.36769       -0.88239
H         -7.65066      -18.53927        0.88134
H         -7.65012      -18.53973       -0.88284
H          7.64869       18.53966       -0.88325
H          7.64865       18.54022        0.88096
H        -10.17332      -18.61884       -0.88341
H        -10.17395      -18.61845        0.88037
H         10.17180       18.62119        0.88083
H         10.17196       18.62071       -0.88295
H         -8.90774      -20.80429        0.88159
H         -8.90719      -20.80484       -0.88268
H          8.90405       20.80562       -0.88393
H          8.90395       20.80616        0.88039
H        -11.43095      -20.86174       -0.88343
H        -11.43166      -20.86131        0.88068
H         11.42768       20.86584        0.88047
H         11.42795       20.86539       -0.88362
H        -10.18738      -23.05904        0.88200
H        -10.18676      -23.05962       -0.88261
H         10.18145       23.06186       -0.88473
H         10.18121       23.06247        0.87991
H        -12.70769      -23.08938       -0.88291
H        -12.70836      -23.08890        0.88055
H         12.70211       23.09496        0.87967
H         12.70238       23.09445       -0.88381
H        -13.04435      -25.40613       -0.00065
H        -11.50672      -25.32504        0.88849
H        -11.50613      -25.32553       -0.88882
H         13.03624       25.41204       -0.00269
H         11.49856       25.32937       -0.89160
H         11.49825       25.32995        0.88571
