54
N-TRIDECYLCYCLOPENTANE.gamout	Energy:    -706.6015441
C          1.43251        0.91281        2.43047
C          0.59643        1.82417        1.48693
C          2.78570        1.63564        2.62710
C          1.45339        3.08636        1.27159
C          2.90698        2.60807        1.43933
C          3.93031        3.73794        1.60815
C          8.81753        5.24538        2.07182
C          7.85670        4.05544        1.93469
C         10.29891        4.86317        2.20080
C          6.38190        4.46600        1.82482
C          5.39752        3.29460        1.70353
C         15.12800        6.58509        2.81789
C         13.64048        6.92737        2.65896
C         16.03481        7.81205        2.98342
C         12.72114        5.70859        2.49820
C         11.23673        6.06927        2.35202
C         18.40876        8.71819        3.31257
C         17.52268        7.48086        3.14817
H          0.92829        0.73902        3.39375
H          1.58059       -0.08084        1.97756
H          0.41900        1.31761        0.52383
H         -0.39557        2.06378        1.89958
H          2.77281        2.22216        3.56392
H          3.63043        0.93469        2.70308
H          1.26839        3.56773        0.29876
H          1.23290        3.83884        2.05076
H          3.17623        2.02229        0.53787
H          3.82260        4.43825        0.76011
H          3.66548        4.32013        2.51188
H          8.52173        5.84011        2.95665
H          8.68915        5.92044        1.20480
H          8.13890        3.45127        1.05183
H          7.98535        3.38609        2.80614
H         10.60408        4.26612        1.32084
H         10.42756        4.19380        3.07227
H          6.25480        5.14159        0.95807
H          6.11015        5.06876        2.71215
H          5.52837        2.62538        2.57338
H          5.65352        2.68495        0.81637
H         15.25768        5.91736        3.69053
H         15.46496        5.99765        1.94303
H         13.51225        7.59815        1.78851
H         13.30842        7.51392        3.53629
H         15.69533        8.39822        3.85838
H         15.90680        8.48081        2.11112
H         12.84956        5.03993        3.37028
H         13.04494        5.11713        1.62114
H         11.10893        6.74277        1.48365
H         10.92061        6.65874        3.23331
H         18.11735        9.30346        4.20114
H         18.33169        9.38524        2.43719
H         19.46895        8.44270        3.42820
H         17.86560        6.89663        2.27431
H         17.65446        6.81424        4.02045
