101
N-TRITRIACONTANE.gamout	Energy:   -1296.6510584
C         21.70327        3.19119        5.53535
C         20.29463        2.61515        5.72944
C         19.19601        3.37927        4.97907
C         22.80151        2.42550        6.28471
C         17.78761        2.80223        5.17265
C         24.21091        3.00032        6.09114
C         16.68848        3.56489        4.42092
C         25.30908        2.23312        6.83976
C         15.27984        2.98718        4.61305
C         26.71929        2.80695        6.64722
C         14.18105        3.74875        3.85924
C         27.81666        2.03791        7.39553
C         12.77224        3.17035        4.04916
C         29.22776        2.61047        7.20463
C         11.67430        3.93078        3.29276
C         30.32382        1.83943        7.95304
C         10.26536        3.35151        3.47993
C         31.73587        2.41056        7.76413
C          9.16829        4.11050        2.72067
C         32.83044        1.63768        8.51293
C          7.75948        3.53003        2.90516
C         34.24324        2.20768        8.32586
C          6.66306        4.28746        2.14305
C         35.33657        1.43311        9.07511
C          5.25432        3.70585        2.32473
C         36.75043        2.00145        8.89027
C          4.15896        4.46185        1.55962
C         37.84295        1.22674        9.63878
C          2.75000        3.88134        1.73692
C         39.25404        1.79591        9.45312
C          1.66061        4.63823        0.96860
C         40.33510        1.01556       10.20284
C          0.25929        4.05227        1.14978
H         21.71153        4.24959        5.85870
H         21.94371        3.20807        4.45527
H         20.05406        2.59838        6.80947
H         20.28673        1.55673        5.40614
H         19.43747        3.39607        3.89922
H         19.20343        4.43778        5.30212
H         22.56068        2.40749        7.36469
H         22.79248        1.36749        5.96004
H         17.54664        2.78636        6.25263
H         17.78071        1.74346        4.85043
H         24.45115        3.01756        5.01100
H         24.22032        4.05854        6.41509
H         16.69465        4.62353        4.74364
H         16.93090        3.58172        3.34125
H         25.06812        2.21371        7.91971
H         25.29950        1.17551        6.51373
H         15.03746        2.97212        5.69274
H         15.27382        1.92811        4.29174
H         26.95988        2.82477        5.56716
H         26.72973        3.86490        6.97202
H         14.18593        4.80752        4.18156
H         14.42529        3.76547        2.77997
H         27.57507        2.01724        8.47533
H         27.80631        0.98072        7.06815
H         12.76740        2.11102        3.72870
H         12.52776        3.15600        5.12840
H         29.46914        2.62907        6.12474
H         29.23919        3.66811        7.53046
H         11.92070        3.94726        2.21398
H         11.67777        4.98973        3.61458
H         30.31258        0.78263        7.62445
H         30.08128        1.81773        9.03262
H         10.26195        2.29195        3.16021
H         10.01849        3.33769        4.55864
H         31.74817        3.46786        8.09099
H         31.97848        2.42993        6.68452
H          9.17021        5.16966        3.04178
H          9.41686        4.12653        1.64237
H         32.81843        0.58115        8.18350
H         32.58686        1.61524        9.59227
H          7.75793        2.47022        2.58621
H          7.51016        3.51662        3.98331
H         34.25600        3.26469        8.65365
H         34.48666        2.22797        7.24643
H          6.91400        4.30295        1.06530
H          6.66369        5.34687        2.46341
H         35.32358        0.37679        8.74500
H         35.09186        1.41026       10.15419
H          5.25463        2.64587        2.00631
H          5.00248        3.69262        3.40230
H         36.99524        2.02271        7.81117
H         36.76429        3.05808        9.21936
H          4.15814        5.52155        1.87908
H          4.41189        4.47654        0.48228
H         37.60079        1.20376       10.71860
H         37.83241        0.17015        9.30891
H          2.74864        2.82137        1.41788
H          2.49199        3.86855        2.81318
H         39.49908        1.81801        8.37489
H         39.26799        2.85139        9.78328
H          1.91635        4.65141       -0.10730
H          1.65996        5.69730        1.28754
H         40.14777        1.00716       11.29040
H         40.37929       -0.03577        9.86990
H         41.33193        1.45541       10.04214
H         -0.04907        4.06076        2.20932
H         -0.49111        4.62446        0.58180
H          0.21076        3.00579        0.80274
