35
N-UNDECYLIC_ACID.gamout	Energy:    -582.1061061
C          8.13146        1.33401        1.79800
C          6.83701        1.94109        1.24188
C          5.56481        1.20232        1.67706
C          9.40554        2.07002        1.36395
C          4.27387        1.80236        1.10958
C         10.70004        1.45511        1.91185
C          3.01662        1.05757        1.55317
C         11.97640        2.18671        1.47896
C          1.73676        1.63046        0.98615
C         13.26736        1.56578        2.02430
O          0.65324        0.95235        1.42357
O          1.65021        2.56959        0.23430
C         14.53586        2.30037        1.58651
H          8.19846        0.27512        1.48329
H          8.08128        1.31255        2.90331
H          6.76695        3.00119        1.55075
H          6.88837        1.95624        0.13680
H          5.51174        1.18917        2.78244
H          5.63861        0.14118        1.37122
H          9.34118        3.12864        1.67978
H          9.45353        2.09222        0.25862
H          4.31422        1.80969        0.00669
H          4.18528        2.86207        1.40534
H         10.76178        0.39754        1.59157
H         10.65315        1.42801        3.01720
H          2.91353        1.04691        2.65298
H          3.05041       -0.00828        1.26259
H         11.91870        3.24483        1.79854
H         12.02543        2.21246        0.37355
H         13.32533        0.50914        1.70276
H         13.22071        1.53813        3.12890
H         -0.12037        1.37786        1.01542
H         14.63685        2.31088        0.48778
H         14.53154        3.35035        1.92645
H         15.43919        1.82299        1.99837
