35
N-UNDECANE.gamout	Energy:    -433.0105482
C          5.40619        2.64675        3.85059
C          6.54103        2.26049        4.80905
C          7.50080        1.17785        4.29253
C          8.35473        1.58275        3.08572
C          9.34797        0.50143        2.65513
C          4.43133        3.67868        4.43557
C          3.28908        4.07646        3.48976
C          2.32447        5.11101        4.08496
C          1.12632        5.47481        3.19488
C          1.47836        6.20384        1.89328
C          0.25251        6.60783        1.07247
H          4.84485        1.73529        3.56848
H          5.82785        3.04575        2.91012
H          6.09591        1.91007        5.75824
H          7.12318        3.16624        5.06638
H          6.92460        0.26721        4.03904
H          8.17451        0.88653        5.11896
H          8.90504        2.51062        3.33012
H          7.70209        1.83277        2.23053
H         10.04936        0.25018        3.46942
H          9.94685        0.82669        1.78945
H          8.83083       -0.43070        2.36958
H          4.99575        4.58626        4.72313
H          4.00387        3.27956        5.37530
H          2.71635        3.17183        3.20850
H          3.72064        4.46598        2.54981
H          2.88601        6.03234        4.33271
H          1.94397        4.72359        5.04744
H          0.43580        6.11015        3.77869
H          0.55804        4.55584        2.95305
H          2.13274        5.56716        1.27200
H          2.07195        7.10517        2.13633
H          0.54159        7.13300        0.14789
H         -0.41298        7.27974        1.64153
H         -0.34505        5.72722        0.78002
