37
N-UNDECYLAMINE.gamout	Energy:    -488.2852501
C        104.00140       10.03654       -0.00875
C        102.69158        9.23630       -0.00769
C        102.88688        7.71443       -0.00264
C        103.80504       11.55848       -0.01380
C        101.57570        6.91608       -0.00027
C        105.11485       12.35863       -0.01387
C        101.76454        5.39390        0.00440
C        104.92133       13.87854       -0.01369
C        100.45033        4.60304        0.00744
C        106.23347       14.66568       -0.01946
C        100.64489        3.08552        0.01169
N        105.98312       16.10333        0.03046
H        104.60245        9.74885        0.87453
H        104.60522        9.74308       -0.88829
H        102.08991        9.52401       -0.89054
H        102.08840        9.52976        0.87218
H        103.48877        7.42669        0.88004
H        103.48958        7.42085       -0.88286
H        103.20388       11.84568       -0.89715
H        103.20132       11.85179        0.86557
H        100.97373        7.20534       -0.88246
H        100.97390        7.21087        0.88018
H        105.71519       12.07083        0.86966
H        105.71903       12.06613       -0.89338
H        102.36499        5.10146        0.88673
H        102.36440        5.09593       -0.87649
H        104.32264       14.17438       -0.89708
H        104.33547       14.19334        0.86771
H         99.85014        4.89521       -0.87409
H         99.85120        4.90041        0.88795
H        106.81843       14.38972        0.87670
H        106.84349       14.33746       -0.89192
H         99.67856        2.55635        0.01378
H        101.20708        2.75338        0.90114
H        101.20603        2.74827       -0.87650
H        106.86430       16.61625        0.06620
H        105.51893       16.40692       -0.82760
