51
N-UNDECYLCYCLOHEXANE.gamout	Energy:    -667.3482640
C          5.71503        7.76624        3.39448
C          4.25336        7.37833        3.12666
C          3.30721        8.52532        2.72583
C          6.57661        6.60007        3.89957
C          1.84453        8.04994        2.68192
C          3.67606        9.18185        1.38553
C          8.04398        6.97145        4.14709
C          0.86709        9.16230        2.29060
C          2.70422       10.29930        0.99123
C          8.94633        5.81244        4.60127
C          1.25669        9.80443        0.95765
C          8.64636        5.24852        5.99709
C          9.61703        4.14708        6.44389
C          9.34683        3.61351        7.85827
C         10.30488        2.50671        8.34421
C          9.84337        1.06102        8.11030
C          9.68734        0.62733        6.65191
H          6.16995        8.17491        2.47430
H          5.74528        8.58808        4.13517
H          3.84573        6.89563        4.03441
H          4.22503        6.59847        2.34055
H          3.37741        9.31015        3.50669
H          6.12751        6.20009        4.82659
H          6.53604        5.77227        3.16585
H          1.56163        7.62385        3.65870
H          1.76503        7.22402        1.94896
H          4.70193        9.58081        1.42463
H          3.67651        8.40301        0.59806
H          8.09618        7.78886        4.89164
H          8.46570        7.39025        3.21572
H         -0.15835        8.76149        2.23905
H          0.85638        9.93843        3.07909
H          2.78551       11.13002        1.71716
H          2.98837       10.71586        0.01138
H          9.99516        6.15936        4.58019
H          8.88997        4.99578        3.85615
H          1.14474        9.05937        0.14758
H          0.57248       10.63337        0.71447
H          8.66699        6.07693        6.73116
H          7.61674        4.84771        6.02750
H          9.58382        3.31827        5.71512
H         10.65338        4.53358        6.40517
H          9.40262        4.46500        8.55928
H          8.30425        3.24865        7.92768
H         11.30174        2.65360        7.88729
H         10.45941        2.62794        9.42915
H         10.56880        0.38984        8.60323
H          8.88629        0.90181        8.64140
H          8.88536        1.17920        6.13514
H          9.43438       -0.44290        6.58722
H         10.61844        0.78402        6.08081
