45
N-UNDECYLBENZENE.gamout	Energy:    -663.7526286
C          9.47854        6.99764        0.51345
C          8.92458        5.57575        0.29202
C          7.64366        5.30237        1.04912
C         10.74180        7.30091       -0.30128
C          7.66713        4.76456        2.34430
C          6.39719        5.61010        0.48384
C         11.31164        8.70945       -0.07689
C          6.48471        4.54348        3.05397
C          5.21194        5.39076        1.18855
C         12.55948        9.02365       -0.91464
C          5.25082        4.85569        2.47823
C         13.13010       10.43217       -0.69253
C         14.36860       10.75048       -1.54274
C         14.93829       12.15998       -1.32489
C         16.17385       12.48004       -2.17694
C         16.73669       13.89018       -1.96094
C         17.97150       14.19583       -2.81105
H          9.68290        7.13657        1.59079
H          8.68980        7.73019        0.26303
H          8.74861        5.42307       -0.78714
H          9.69249        4.84022        0.58809
H         10.51868        7.16804       -1.37697
H         11.51959        6.55054       -0.06364
H          8.62743        4.51164        2.80255
H          6.35387        6.02633       -0.52673
H         11.54882        8.83835        0.99613
H         10.52649        9.45644       -0.30006
H          6.52694        4.12006        4.06055
H          4.25249        5.63446        0.72604
H         13.34396        8.27442       -0.69591
H         12.31798        8.89724       -1.98720
H          4.32445        4.67972        3.03012
H         13.38019       10.55846        0.37804
H         12.34193       11.17956       -0.90417
H         15.15669       10.00284       -1.33164
H         14.11702       10.62371       -2.61296
H         14.14869       12.90628       -1.53526
H         15.19142       12.28800       -0.25518
H         15.92338       12.35129       -3.24737
H         16.96638       11.73703       -1.96519
H         15.94584       14.63230       -2.17721
H         16.98400       14.02103       -0.89101
H         17.75070       14.10897       -3.88875
H         18.79691       13.49877       -2.58662
H         18.34109       15.21736       -2.62964
