15
N-VALERONITRILE.gamout	Energy:    -250.3428130
C          4.59771        1.14584        0.90358
C          3.21522        1.82148        0.98042
C          2.10629        0.83791        1.36507
C          5.68004        2.06671        0.54499
C          0.72316        1.48647        1.44484
N          6.52451        2.80594        0.25604
H          4.58513        0.32917        0.16069
H          4.85067        0.68015        1.87220
H          2.98570        2.28519        0.00541
H          3.25607        2.64777        1.71098
H          2.35407        0.37358        2.33723
H          2.08661        0.01042        0.63236
H          0.70056        2.29489        2.19477
H          0.42802        1.92462        0.47664
H         -0.04568        0.74987        1.72523
