30
NAPHTHACENE.gamout	Energy:    -692.2304463
C          4.17430        3.94809        4.45760
C          3.08086        2.99631        4.54729
C          1.99927        3.11820        3.64477
C          3.14046        1.98497        5.53361
C          5.25663        3.82476        5.35886
C          4.11329        4.96053        3.47265
C          1.94903        4.12095        2.67620
C          4.21299        1.87262        6.41885
C          5.30666        2.82165        6.32715
C          3.04055        5.07263        2.58761
C          0.85150        4.25255        1.76131
C          4.27854        0.84981        7.42316
C          6.40393        2.68981        7.24210
C          2.97496        6.09495        1.58295
C          0.82785        5.24855        0.82327
C          5.34524        0.76307        8.27617
C          6.42551        1.69600        8.18258
C          1.90717        6.18271        0.73138
H          1.17603        2.40169        3.71152
H          2.31657        1.26935        5.60300
H          6.08055        4.54042        5.29162
H          4.93539        5.67827        3.40502
H          0.02782        3.53759        1.82892
H          3.45450        0.13562        7.49557
H          7.22926        3.40279        7.17297
H          3.79996        6.80781        1.50876
H         -0.01751        5.33446        0.13678
H          5.37769       -0.02225        9.03485
H          7.26990        1.61134        8.87038
H          1.87422        6.96867       -0.02660
