31
NAPROXEN.gamout	Energy:    -766.6088170
C          5.78726        1.88477       -0.60907
C          6.90078        1.94744        0.20436
C          4.63366        1.14665       -0.23705
C          6.91101        1.26120        1.45012
C          5.79893        0.53279        1.84041
O          7.96518        1.26940        2.30677
C          4.64937        0.45754        1.01882
C          3.49278       -0.28584        1.38850
C          3.48050        1.06798       -1.06409
C          2.36981        0.33785       -0.68639
C          2.39495       -0.34518        0.56115
C          1.10707        0.28011       -1.54176
C          9.12756        1.99067        1.97359
C          0.26607        1.55886       -1.42128
C          1.47803        0.01996       -2.99112
O          1.46588       -1.29396       -3.28792
O          1.77561        0.86444       -3.80193
H          5.78898        2.41542       -1.56465
H          7.76599        2.52585       -0.11804
H          5.82855        0.01408        2.80066
H          3.48977       -0.81882        2.34244
H          3.48621        1.59646       -2.02063
H          1.51938       -0.92673        0.86181
H          0.51626       -0.58466       -1.20640
H          9.82756        1.85850        2.81004
H          9.60255        1.60920        1.05102
H          8.92627        3.07040        1.84783
H         -0.66536        1.47723       -2.00279
H          0.00832        1.74317       -0.36869
H          0.83047        2.42269       -1.80038
H          1.75804       -1.37221       -4.21261
