32
NARINGENIN.gamout	Energy:    -953.7149262
O          0.08586       -0.72656       -0.04671
O          1.71176        3.01677        0.32584
O          4.14048        1.83631        0.22520
O          4.19726       -2.90900       -0.43023
O         -6.23179       -0.54415       -0.35058
C         -0.68652        0.33587        0.52688
C         -0.22600        1.67263       -0.04891
C         -2.14721        0.04400        0.29095
C          2.07662        0.66003        0.09151
C          1.26897        1.89699        0.15943
C          1.43088       -0.59788       -0.05609
C          3.49810        0.66368        0.07954
C          2.14496       -1.78262       -0.22931
C         -3.09977        0.35876        1.26911
C         -2.59328       -0.48968       -0.92304
C          4.21580       -0.52333       -0.09683
C          3.53944       -1.74135       -0.25782
C         -4.46033        0.16339        1.04513
C         -3.95228       -0.69754       -1.15659
C         -4.89717       -0.36723       -0.17565
H         -0.49327        0.33863        1.61716
H         -0.76974        2.50926        0.40935
H         -0.43603        1.69458       -1.13405
H          1.61563       -2.72873       -0.32602
H         -2.77031        0.76350        2.22998
H         -1.86599       -0.76237       -1.68997
H          5.31053       -0.49639       -0.10870
H         -5.20150        0.40715        1.80780
H         -4.28312       -1.12377       -2.10888
H          5.09304        1.68368        0.16389
H          5.15051       -2.75193       -0.41326
H         -6.39516       -0.91538       -1.22762
