19
NEOPENTYL_GLYCOL.gamout	Energy:    -347.7265081
C          1.01540        0.86319        2.33567
C          2.02718        2.01652        2.12993
C          1.62516        3.21849        2.99641
C          3.44250        1.54804        2.49101
C          1.97024        2.45919        0.66248
O          1.07207        0.25591        3.60092
O          1.58717        2.83891        4.36940
H          1.22095        0.07608        1.58997
H         -0.00208        1.25409        2.11015
H          0.63101        3.58100        2.66771
H          2.34910        4.04283        2.83937
H          4.17621        2.35788        2.34524
H          3.74060        0.70039        1.85421
H          3.49307        1.21676        3.53632
H          2.28811        1.64088       -0.00207
H          2.63379        3.31882        0.47393
H          0.94869        2.75150        0.36816
H          1.06752        0.97938        4.24946
H          1.25030        3.57660        4.89243
