17
NEOPENTANOIC_ACID.gamout	Energy:    -346.5676127
C         -0.03064        0.29299        0.01125
C          1.32919        0.99945       -0.00753
C          1.13705        2.52881       -0.03251
C          2.15941        0.59850        1.22782
C          2.08508        0.57740       -1.26544
O          3.30080        1.16328       -1.35812
O          1.68537       -0.18811       -2.10854
H          0.08950       -0.80015        0.01454
H         -0.62632        0.55770       -0.87436
H         -0.59282        0.58601        0.91133
H          2.10268        3.05421       -0.04897
H          0.55862        2.84274       -0.91571
H          0.58335        2.84784        0.86416
H          3.14212        1.09161        1.22651
H          2.31976       -0.49082        1.26372
H          1.62544        0.89099        2.14546
H          3.69887        0.83458       -2.18245
