14
NICOTINIC_ACID.gamout	Energy:    -436.3044866
C          4.19138       -0.23504       -0.17981
C          2.91701        0.33487       -0.07165
C          4.30240       -1.62195       -0.18145
C          1.80918       -0.52205        0.03032
C          2.78862        1.81815       -0.06884
C          3.13223       -2.38293       -0.07498
N          1.91121       -1.85132        0.02873
O          1.51043        2.23208        0.04240
O          3.71742        2.58700       -0.15535
H          5.06174        0.41942       -0.25971
H          5.27439       -2.11191       -0.26321
H          0.80349       -0.10049        0.11605
H          3.18882       -3.47780       -0.07356
H          1.53182        3.20417        0.03550
