26
NICOTINE.gamout	Energy:    -498.2992821
C          0.29527       -0.51713       -0.13579
C          1.76431       -0.16052       -0.47356
C          2.03744        1.17793        0.26783
N          0.69795        1.72474        0.46923
C         -0.14679        0.59523        0.82289
C          2.96899        2.11146       -0.47663
C          2.51850        2.85311       -1.58155
N          3.29450        3.65389       -2.31299
C          4.58281        3.75625       -1.97359
C          5.14321        3.07393       -0.89225
C          4.31835        2.24183       -0.13371
C          0.61540        2.83426        1.39031
H          2.50959        0.94448        1.25278
H         -0.32094       -0.50774       -1.04760
H          0.18974       -1.51245        0.32070
H          2.47942       -0.93533       -0.15943
H          1.89369       -0.02074       -1.55685
H         -1.21418        0.85640        0.73210
H          0.02411        0.28297        1.88117
H          1.46291        2.78902       -1.86702
H          5.20190        4.41772       -2.59066
H          6.20064        3.19552       -0.64846
H          4.72043        1.69681        0.72528
H         -0.42350        3.19378        1.44823
H          1.24198        3.67020        1.04448
H          0.94145        2.56333        2.42235
