24
NICORANDIL.gamout	Energy:    -774.3141615
O          2.97789       -0.22655        0.52064
O         -0.93163        2.34679       -0.14526
O          4.55737       -0.22755       -1.06157
O          4.19533       -1.99495        0.15809
N          0.33519        0.73006        0.81670
N         -4.24296       -0.04761       -0.61221
N          4.00945       -0.87038       -0.20379
C          1.50694        1.56501        0.94986
C          2.66081        1.10367        0.07417
C         -0.82052        1.19553        0.24944
C         -1.95972        0.21995        0.13629
C         -1.93557       -1.11621        0.55387
C         -3.14997        0.69453       -0.44125
C         -3.07376       -1.90124        0.37898
C         -4.20079       -1.31993       -0.20855
H          1.83869        1.60558        2.00222
H          1.21328        2.57881        0.64221
H          3.53802        1.75962        0.19184
H          2.37668        1.08288       -0.98964
H          0.41942       -0.24017        1.08866
H         -1.05011       -1.56275        1.01280
H         -3.18288        1.73646       -0.77191
H         -3.09081       -2.94657        0.69279
H         -5.11041       -1.91295       -0.35828
