29
NIFLUMIC_ACID.gamout	Energy:   -1059.0177951
F         -3.57913        2.21021       -0.91489
F         -5.14001        0.95309       -0.09533
F         -3.71276        1.90988        1.22133
O          4.91572       -1.25839       -0.02566
O          2.92587       -2.26233       -0.14736
N          0.72755       -0.70400       -0.04021
N          1.08380        1.59648        0.18331
C         -0.66923       -0.78321       -0.10241
C         -2.92921        0.09430       -0.08036
C         -1.54848        0.30735        0.00279
C          1.58164        0.35513        0.07181
C         -1.21003       -2.07417       -0.28415
C         -3.45937       -1.18272       -0.26353
C          3.00253        0.12533        0.07053
C         -2.58463       -2.26781       -0.36303
C         -3.84361        1.28892        0.03222
C          3.84532        1.23863        0.18688
C          3.30729        2.51527        0.29881
C          1.91366        2.62713        0.29198
C          3.57075       -1.22882       -0.04491
H         -1.13984        1.30374        0.14487
H          1.22408       -1.59470       -0.11539
H         -0.53277       -2.92824       -0.36545
H         -4.53771       -1.32338       -0.32662
H         -2.97980       -3.27594       -0.50575
H          4.92436        1.07864        0.18632
H          3.93750        3.40034        0.38961
H          1.44565        3.61457        0.38202
H          5.17085       -2.19322       -0.10536
