10
NITROETHANE.gamout	Energy:    -283.9678170
N          0.54844       -0.01253       -0.04808
O          0.59875       -1.22820       -0.10830
O          1.47741        0.72508        0.22451
C         -0.77742        0.63976       -0.37250
C         -1.93787       -0.08185        0.28816
H         -0.66994        1.68517       -0.05915
H         -0.84684        0.60420       -1.47150
H         -1.98340       -1.12795       -0.04472
H         -1.84386       -0.06571        1.38506
H         -2.88152        0.41657        0.01814
