6
NITROGEN_TETROXIDE.gamout	Energy:    -409.6905742
N         -0.10678        1.31760        0.00000
N          1.66787        1.13060        0.00000
O         -0.44171        2.45583       -0.00000
O         -0.67188        0.27433        0.00000
O          2.00307       -0.00757       -0.00000
O          2.23273        2.17400        0.00000
