7
NITROMETHANE.gamout	Energy:    -244.7065768
N          0.10037        0.01297        0.00072
O          0.63877       -1.02802        0.32959
O          0.66528        1.04235       -0.31807
C         -1.39904        0.01289       -0.00806
H         -1.73212       -0.23737        1.00751
H         -1.74706        1.00264       -0.31893
H         -1.72184       -0.77211       -0.70397
