7
NITROMETHANE2.gamout	Energy:    -244.7065698
N          0.22366       -0.24834       -0.01012
O          0.77076       -0.89221        0.86591
O          0.77566        0.46928       -0.82355
C         -1.26474       -0.38705       -0.12574
H         -1.66324        0.54138       -0.54859
H         -1.45565       -1.22878       -0.80634
H         -1.66525       -0.60553        0.87002
