28
NON-1.gamout	Energy:    -503.0140385
O         -5.10639        3.93424       -0.00948
O         -5.20561        1.66989       -0.00652
C         -0.34086       -0.17291        0.00284
C          1.19242       -0.25035        0.00072
C         -0.91431        1.25322        0.00308
C          1.75656       -1.67793        0.00083
C         -2.44789        1.31950        0.00176
C          3.28755       -1.75284       -0.00192
C         -3.04325        2.72726        0.00126
C          3.83738       -3.18166       -0.00210
C         -4.62764        2.78122       -0.00611
H         -0.72903       -0.71864        0.88440
H         -0.73084       -0.71922       -0.87766
H          1.58272        0.29300       -0.88161
H          1.58492        0.29401        0.88147
H         -0.52229        1.79846       -0.87880
H         -0.52173        1.79959        0.88368
H          1.36716       -2.22484       -0.87953
H          1.37044       -2.22362        0.88345
H         -2.85026        0.77342       -0.87021
H         -2.84931        0.77354        0.87454
H          3.67683       -1.21080       -0.88410
H          3.68007       -1.20985        0.87825
H         -2.68910        3.30402       -0.87550
H         -2.69715        3.30092        0.88367
H          4.93983       -3.19302       -0.00375
H          3.50123       -3.74292        0.88707
H          3.49863       -3.74378       -0.88973
