40
NONYLPHENOL.gamout	Energy:    -660.3555912
C          6.50470        1.44846       -1.59425
C          6.65682        0.49611       -0.57981
C          5.26246        2.02080       -1.88577
C          5.50490        0.13424        0.14088
C          4.12947        1.64804       -1.15439
C          4.26096        0.69602       -0.13366
C          9.17441       -0.88108        4.34878
C          8.01064       -0.13852       -0.29208
C          8.45142        0.00536        1.19553
C          9.91979        0.43684        1.40567
C         10.22459        0.95459        2.83749
C         10.37495        0.02940        4.06904
C         11.68492       -0.76821        4.10967
C          8.01161       -1.60362       -0.76474
C         10.93688       -0.58492        0.88566
O          2.89479        2.16897       -1.38516
H          7.37769        1.75487       -2.17750
H          5.17544        2.76458       -2.68419
H          5.57642       -0.60595        0.94229
H          3.37303        0.41004        0.43323
H          9.26211       -1.33879        5.34760
H          8.22332       -0.32635        4.32125
H          9.10521       -1.70568        3.62096
H          8.74424        0.40856       -0.91032
H          7.81608        0.76677        1.67345
H          8.24727       -0.93611        1.73172
H         10.04359        1.34227        0.78080
H         11.15745        1.54175        2.77148
H          9.43884        1.69136        3.07989
H         10.43049        0.73838        4.91657
H         11.82374       -1.22551        5.10298
H         12.55741       -0.12181        3.92137
H         11.70789       -1.58438        3.37147
H          8.98913       -2.07944       -0.59831
H          7.77546       -1.67015       -1.83761
H          7.25366       -2.19078       -0.22059
H         11.96785       -0.25656        1.09150
H         10.85142       -0.71454       -0.20410
H         10.80517       -1.57749        1.34580
H          2.94656        2.80654       -2.10917
