15
O-CHLOROBENZOIC_ACID.gamout	Energy:    -879.6799184
C          6.32231        1.82325       -0.60002
C          6.85555        0.55539       -0.29443
C          4.95054        2.03541       -0.69976
C          5.95128       -0.50814       -0.08063
C          8.34132        0.38923       -0.22786
C          4.57170       -0.29313       -0.17557
Cl         6.45624       -2.12470        0.33083
C          4.07219        0.97020       -0.48635
O          8.94759       -0.65100       -0.15963
O          8.98394        1.58223       -0.26438
H          7.01701        2.64676       -0.76334
H          4.56841        3.02887       -0.94225
H          3.89913       -1.13359       -0.00053
H          2.99203        1.11989       -0.55929
H          9.93272        1.37155       -0.23750
