15
O-CHLOROTOLUENE.gamout	Energy:    -730.5951465
C          7.25556        3.02733       -0.97236
C          6.33966        1.87197       -0.66889
C          6.83721        0.57930       -0.42496
C          4.94639        2.03548       -0.61595
Cl         8.56871        0.29244       -0.47545
C          5.99614       -0.49833       -0.14197
C          4.08903        0.96992       -0.33483
C          4.61464       -0.30143       -0.09672
H          7.96752        3.19811       -0.14828
H          7.85933        2.83163       -1.87370
H          6.68278        3.95203       -1.13291
H          4.52957        3.02954       -0.80114
H          6.43086       -1.48233        0.04008
H          3.00959        1.13440       -0.30187
H          3.95358       -1.14290        0.12435
