16
O-CRESOL.gamout	Energy:    -346.3257171
C          6.26432        1.99483       -0.67974
C          6.85694        0.77448       -0.33937
C          4.87189        2.11630       -0.70547
C          4.07261        1.01765       -0.39077
C          4.67661       -0.19842       -0.05141
C          6.06677       -0.34762       -0.01804
C          6.73641       -1.64509        0.34464
O          8.20879        0.60650       -0.29905
H          6.89834        2.85306       -0.92511
H          4.41862        3.07396       -0.97272
H          2.98403        1.10315       -0.40809
H          4.05293       -1.06203        0.19593
H          7.39312       -1.52373        1.22252
H          5.99394       -2.42343        0.57250
H          7.37875       -2.00791       -0.47540
H          8.64227        1.43711       -0.53570
