24
O-CYMENE.gamout	Energy:    -388.9572783
C          1.03703        2.62930        3.49118
C          1.72678        2.08672        2.22795
C          1.09207        0.75634        1.78659
C          3.23743        1.96257        2.40753
C          4.15519        2.68218        1.60760
C          3.74043        1.10301        3.39639
C          3.70525        3.63089        0.51859
C          5.53089        2.51049        1.83192
C          5.10912        0.94322        3.60871
C          6.01418        1.65307        2.81962
H          1.14951        1.93791        4.34275
H          1.45818        3.60041        3.79534
H         -0.04248        2.76743        3.31580
H          1.53952        2.81338        1.42389
H          1.55125        0.38063        0.85893
H          1.21274       -0.02392        2.55628
H          0.01211        0.88206        1.60535
H          3.04192        0.54006        4.02078
H          4.57143        4.08528        0.01514
H          3.10443        3.12303       -0.25450
H          3.08729        4.45392        0.91587
H          6.23828        3.06779        1.21197
H          5.46476        0.26533        4.38809
H          7.09055        1.54140        2.97016
