12
O-DIBROMOBENZENE.gamout	Energy:   -5378.1880750
Br         7.43201        3.36463       -1.07200
C          6.33506        1.86396       -0.67160
C          6.87323        0.61203       -0.33728
C          4.94562        2.03093       -0.71768
Br         8.74669        0.30155       -0.25146
C          6.01625       -0.45807       -0.05373
C          4.09638        0.96072       -0.43439
C          4.63248       -0.28540       -0.10217
H          4.53829        3.00922       -0.97819
H          6.44494       -1.42749        0.20521
H          3.01418        1.10480       -0.47450
H          3.97539       -1.12910        0.12080
