16
O-DINITROBENZENE.gamout	Energy:    -640.4363852
C          6.29714        1.89547       -0.65076
C          6.82847        0.64370       -0.34687
C          4.91192        2.06958       -0.69549
C          4.06189        0.99153       -0.43939
C          4.59405       -0.26048       -0.12312
C          5.97585       -0.43213       -0.06758
N          6.47197       -1.74755        0.39821
N          8.29853        0.49388       -0.44318
O          8.71659       -0.52191       -0.96442
O          8.96936        1.42886       -0.04450
O          5.86394       -2.72838        0.00882
O          7.40600       -1.74138        1.17658
H          6.98493        2.71545       -0.86002
H          4.49898        3.05060       -0.93948
H          2.97857        1.12375       -0.47694
H          3.95464       -1.11614        0.09563
