12
O-DIFLUOROBENZENE.gamout	Energy:    -430.1802327
C          6.33298        1.86662       -0.67249
C          6.87338        0.62014       -0.33952
C          4.94789        2.04100       -0.72114
C          4.09396        0.97028       -0.43715
C          4.63436       -0.26775       -0.10651
C          6.02136       -0.44239       -0.05780
F          3.83847       -1.30493        0.16846
F          6.51345       -1.64249        0.26278
H          7.00038        2.70228       -0.89414
H          7.95146        0.45295       -0.29328
H          4.52531        3.01392       -0.98101
H          3.00753        1.07623       -0.46684
