30
O-DIISOPROPYLBENZENE.gamout	Energy:    -467.4625683
C          6.37931        1.82901       -0.65427
C          6.88556        0.57489       -0.31889
C          4.99986        2.09172       -0.73119
C          4.56852        3.50846       -1.11102
C          4.09627        1.03472       -0.45565
C          2.56872        1.13637       -0.48786
C          4.62828       -0.22433       -0.11910
C          5.99855       -0.46649       -0.04734
C          1.98234        2.06307        0.59068
C          1.98750        1.42083       -1.88304
C          5.03844        4.54846       -0.08188
C          5.02927        3.88719       -2.52733
H          7.08482        2.63669       -0.86561
H          7.96567        0.41554       -0.27085
H          3.47305        3.54440       -1.11582
H          2.21751        0.12449       -0.22664
H          3.93451       -1.04222        0.09437
H          6.36685       -1.46015        0.21848
H          0.88380        1.97432        0.61230
H          2.35977        1.79137        1.58876
H          2.22243        3.12390        0.42294
H          0.88993        1.32125       -1.86452
H          2.37632        0.70433       -2.62322
H          2.21724        2.43308       -2.24889
H          4.66645        5.55169       -0.34687
H          4.67144        4.30634        0.92757
H          6.13803        4.60636       -0.02987
H          4.66275        4.89048       -2.79912
H          4.65168        3.17393       -3.27617
H          6.12839        3.90219       -2.60855
