20
O-ETHYLANILINE.gamout	Energy:    -365.7316636
C          7.05660        3.82312       -1.82792
C          6.94060        3.27146       -0.39681
C          6.12772        1.99997       -0.29151
C          6.71220        0.73855       -0.56903
C          4.77658        2.04663        0.07005
N          8.06797        0.63067       -0.87770
C          5.92106       -0.42028       -0.46105
C          3.99375        0.89463        0.17417
C          4.57938       -0.34471       -0.09172
H          7.66988        4.73823       -1.85348
H          7.51485        3.09283       -2.51621
H          6.06277        4.06653       -2.23627
H          6.48489        4.04134        0.24682
H          7.95030        3.09565        0.01584
H          4.33037        3.02226        0.28644
H          8.35739       -0.26035       -1.26550
H          8.49209        1.41433       -1.35903
H          6.37586       -1.39290       -0.67066
H          2.94284        0.96489        0.46320
H          3.98925       -1.26190       -0.01476
