19
O-ETHYLPHENOL.gamout	Energy:    -385.5812589
C          7.04939        4.13715       -0.60824
C          6.88355        2.98856       -1.61547
C          6.08516        1.82556       -1.07709
C          6.67729        0.90818       -0.18502
C          4.74383        1.62495       -1.42035
O          7.98566        1.11214        0.14213
C          5.94252       -0.16409        0.33229
C          3.99886        0.55875       -0.90705
C          4.60403       -0.33842       -0.02725
H          7.63306        4.96222       -1.04712
H          6.07076        4.53961       -0.29980
H          7.57510        3.79115        0.29487
H          7.88170        2.63279       -1.92073
H          6.38689        3.36581       -2.52415
H          4.27399        2.32685       -2.11546
H          8.27915        0.41261        0.74037
H          6.42456       -0.86569        1.02103
H          2.95374        0.42917       -1.19635
H          4.03976       -1.17931        0.38306
