21
O-ETHYLTOLUENE.gamout	Energy:    -349.7017919
C          1.07385        2.91899        2.00561
C          2.04107        2.26404        1.00644
C          3.47119        2.75128        1.13897
C          4.37994        2.21003        2.07489
C          3.89901        3.80661        0.31565
C          4.02867        1.07329        3.01017
C          5.67763        2.74220        2.14272
C          5.18794        4.32909        0.39806
C          6.08714        3.79010        1.32087
H          0.03685        2.59275        1.82287
H          1.33095        2.66041        3.04532
H          1.10132        4.01709        1.91932
H          1.99656        1.16842        1.11691
H          1.69339        2.47379       -0.01863
H          3.19458        4.22356       -0.41007
H          4.67470        0.19787        2.82594
H          4.18313        1.36614        4.06235
H          2.98882        0.73989        2.90973
H          6.38428        2.31972        2.86351
H          5.49023        5.15102       -0.25521
H          7.10383        4.18316        1.39954
