13
O-FLUOROPHENOL.gamout	Energy:    -406.1878191
F          7.14682        2.84778       -0.93262
C          6.31529        1.83335       -0.66341
C          6.86834        0.58444       -0.32991
C          4.94202        2.02538       -0.71679
O          8.21900        0.48182       -0.30066
C          5.99488       -0.47206       -0.04990
C          4.07898        0.96009       -0.43451
C          4.60933       -0.28623       -0.10169
H          4.56655        3.01600       -0.98141
H          8.46387       -0.42100       -0.05985
H          6.41047       -1.45061        0.21129
H          2.99829        1.10943       -0.47608
H          3.94712       -1.12562        0.12079
