19
O-METHOXYBENZOIC_ACID.gamout	Energy:    -534.6534263
C          6.07727        1.84308       -0.74407
C          6.74838        0.63407       -0.57674
C          4.68992        1.93084       -0.55487
O          4.10052        3.15571       -0.66234
C          3.96528        0.77312       -0.18798
C          2.49197        0.70270        0.05357
C          4.66533       -0.43333       -0.00664
C          6.03904       -0.51299       -0.20448
O          1.79368        1.78173       -0.34954
O          1.94135       -0.25630        0.54656
C          3.72486        3.56756       -1.96721
H          6.61746        2.75542       -1.00535
H          7.82995        0.58893       -0.72636
H          4.08682       -1.30778        0.29489
H          6.55856       -1.46279       -0.06322
H          0.86487        1.58463       -0.13772
H          3.32802        4.58818       -1.87801
H          4.59186        3.57560       -2.65281
H          2.94006        2.91108       -2.37921
