16
O-NITROANILINE.gamout	Energy:    -491.4885531
C          6.30059        1.82971       -0.66977
C          6.88430        0.55896       -0.38393
C          4.90564        2.00726       -0.68266
N          7.11832        2.99744       -0.96433
C          5.97568       -0.50246       -0.11925
N          8.21814        0.33103       -0.35532
C          4.05318        0.95053       -0.41828
C          4.60613       -0.31304       -0.13641
O          6.56040        4.05985       -1.19050
O          8.34844        2.87214       -0.97437
H          8.56685       -0.59169       -0.13952
H          8.84316        1.10680       -0.54681
H          4.53047        3.00450       -0.90761
H          6.39134       -1.48936        0.09965
H          2.97169        1.09511       -0.43021
H          3.94868       -1.16093        0.07207
