15
O-NITROPHENOL.gamout	Energy:    -511.3391038
C          6.30986        1.82081       -0.65999
C          6.84590        0.56557       -0.32496
C          4.90628        2.03275       -0.71891
N          7.23444        2.90453       -0.94720
C          6.00151       -0.49500       -0.04403
C          4.07143        0.93432       -0.42753
O          4.34216        3.19517       -1.02991
C          4.60858       -0.30039       -0.09796
O          6.75665        4.01360       -1.24421
O          8.42970        2.69678       -0.88956
H          7.93018        0.46342       -0.29615
H          6.41297       -1.47140        0.21637
H          2.99365        1.09831       -0.47282
H          5.08281        3.82924       -1.19816
H          3.93641       -1.13308        0.12271
