21
O-PHENETIDINE.gamout	Energy:    -440.8544979
C          6.37786        1.86329       -0.68110
C          6.84931        0.61731       -0.26090
C          5.00689        2.10111       -0.79811
C          4.07064        1.09941       -0.48821
N          2.69905        1.30564       -0.55830
C          4.55849       -0.15638       -0.05478
O          3.64728       -1.15209        0.22364
C          5.92868       -0.38921        0.04851
C          3.25544       -1.25522        1.59505
C          2.31420       -2.43342        1.73583
H          7.08276        2.66096       -0.92886
H          7.92124        0.42671       -0.17802
H          4.64686        3.07813       -1.13307
H          2.39344        2.05562       -1.16786
H          2.16168        0.45127       -0.67144
H          6.26073       -1.38041        0.36711
H          4.15490       -1.39427        2.22417
H          2.76948       -0.31417        1.91559
H          2.00244       -2.55270        2.78574
H          1.40935       -2.29404        1.12274
H          2.80533       -3.36412        1.41073
