16
O-PHENYLENEDIAMINE.gamout	Energy:    -342.5043815
N          7.14810        2.94567       -0.99996
C          6.34141        1.84587       -0.66917
C          6.85926        0.58529       -0.35371
C          4.93400        2.02421       -0.71489
C          6.01325       -0.49083       -0.06305
C          4.63101       -0.30788       -0.07753
C          4.10000        0.94438       -0.40651
N          4.45017        3.30647       -1.01787
H          6.82622        3.81070       -0.56612
H          8.13564        2.80223       -0.81028
H          7.94498        0.45208       -0.32528
H          6.44015       -1.46568        0.18369
H          3.95976       -1.13757        0.15610
H          3.01564        1.08803       -0.43736
H          4.94524        3.73737       -1.79851
H          3.44709        3.34100       -1.17440
