18
O-TOLUIC_ACID.gamout	Energy:    -459.5410467
O          0.93899        1.94785        1.67820
C          1.63689        2.95107        1.10256
O          1.07064        3.88126        0.57415
C          3.12222        2.80502        1.17834
C          3.81775        1.72820        1.78472
C          3.83804        3.85586        0.57859
C          3.15409        0.55048        2.45698
C          5.22106        1.76751        1.75323
C          5.22783        3.86923        0.56286
C          5.92326        2.81386        1.15628
H          0.00191        2.17539        1.55300
H          3.26186        4.66297        0.12453
H          2.49969        0.00138        1.76404
H          3.91443       -0.14377        2.84186
H          2.51602        0.86553        3.29573
H          5.77532        0.94670        2.21473
H          5.76503        4.69511        0.09171
H          7.01589        2.80241        1.15592
