16
O-TOLUNITRILE.gamout	Energy:    -363.3180539
N          7.86022        3.90326       -1.00450
C          7.16211        2.99136       -0.82684
C          6.30559        1.85847       -0.60581
C          6.87219        0.58723       -0.34761
C          4.91077        2.03150       -0.64960
C          8.36576        0.40082       -0.30123
C          5.99615       -0.48417       -0.13843
C          4.06400        0.94613       -0.43760
C          4.61046       -0.31362       -0.18156
H          4.50383        3.02388       -0.85091
H          8.83553        0.68596       -1.25706
H          8.82507        1.03355        0.47602
H          8.62799       -0.64513       -0.09012
H          6.41203       -1.47453        0.06244
H          2.98110        1.08307       -0.47207
H          3.95447       -1.17121       -0.01395
