29
OCA+1.gamout	Energy:    -370.8859619
N          1.02306        0.16132        0.06977
C          0.53231       -1.17366       -0.47445
C          1.03888       -1.40671       -1.88963
C          0.55270       -2.75317       -2.45008
C          1.03917       -3.02831       -3.88000
C          0.55709       -4.37489       -4.43645
C          1.03708       -4.66880       -5.86428
C          0.55188       -6.01556       -6.41255
C          1.03811       -6.31011       -7.83342
H          0.69573        0.33757        1.03033
H          0.70001        0.94587       -0.51619
H          2.05320        0.20335        0.08055
H         -0.56626       -1.13856       -0.42124
H          0.88842       -1.93896        0.23157
H          2.14434       -1.38149       -1.89616
H          0.69241       -0.58634       -2.54514
H         -0.55172       -2.77489       -2.42429
H          0.89345       -3.56480       -1.78205
H          2.14429       -2.99659       -3.90058
H          0.69756       -2.21222       -4.54333
H         -0.54826       -4.40226       -4.41037
H          0.89536       -5.18618       -3.76509
H          2.14273       -4.64175       -5.89061
H          0.69916       -3.85831       -6.53716
H         -0.55320       -6.03931       -6.38812
H          0.88442       -6.82369       -5.73512
H          0.69511       -5.54077       -8.54583
H          0.66344       -7.28188       -8.18881
H          2.13974       -6.33947       -7.88497
