25
OCT-1.gamout	Energy:    -463.7577831
O         -4.81965        3.21522       -0.00260
O         -2.71263        4.04839        0.01602
C          0.62105        0.06359       -0.00201
C         -0.91372        0.13194       -0.00212
C          1.20576       -1.35542        0.00061
C         -1.48106        1.55864       -0.00190
C          2.73800       -1.40667       -0.00039
C         -3.00560        1.65924       -0.00161
C          3.31322       -2.82556        0.00201
C         -3.57385        3.13920        0.00442
H          1.00533        0.61449        0.87800
H          1.00496        0.61137       -0.88414
H         -1.29794       -0.42031       -0.88276
H         -1.29713       -0.41838        0.88035
H          0.82674       -1.91020       -0.87984
H          0.82784       -1.90678        0.88363
H         -1.09781        2.11770       -0.87441
H         -1.09833        2.11945        0.86942
H          3.11889       -0.85867       -0.88261
H          3.12025       -0.85508        0.87896
H         -3.43436        1.13783        0.87655
H         -3.43495        1.14441       -0.88345
H          4.41586       -2.81895        0.00064
H          2.98347       -3.39466       -0.88479
H          2.98564       -3.39088        0.89203
