37
OCTAMETHYLTRISILOXANE.gamout	Energy:   -1337.4827725
Si        75.69247       35.56982       -0.02106
C         74.72745       37.10749       -0.53399
C         77.16068       36.05146        1.06537
C         74.56603       34.35336        0.87857
O         76.23669       34.82520       -1.41005
Si        77.25890       34.13825       -2.52034
C         76.20181       33.55252       -3.95661
C         78.56234       35.38797       -3.02876
O         78.05778       32.84586       -1.85949
Si        78.29360       31.37271       -1.11290
C         79.15791       31.68545        0.53517
C         76.62694       30.52668       -0.83742
C         79.38812       30.33140       -2.24186
H         73.87862       36.84758       -1.18902
H         75.37064       37.81239       -1.08797
H         74.32298       37.64252        0.34266
H         77.76240       35.17114        1.34913
H         77.82899       36.76083        0.54778
H         76.82437       36.53731        1.99764
H         75.11116       33.43739        1.16354
H         73.72346       34.05115        0.23370
H         74.14334       34.79045        1.79949
H         76.81018       33.06784       -4.73864
H         75.44891       32.82410       -3.61117
H         75.65851       34.39411       -4.41785
H         79.25461       34.95798       -3.77188
H         79.16485       35.69176       -2.15590
H         78.11195       36.29573       -3.46393
H         79.36250       30.74052        1.06724
H         80.12128       32.20190        0.38554
H         78.54217       32.31577        1.19927
H         76.74720       29.55089       -0.33623
H         76.10953       30.34426       -1.79500
H         75.95851       31.14194       -0.21117
H         80.35466       30.83133       -2.42507
H         79.60210       29.34035       -1.80571
H         78.90853       30.16882       -3.22230
