11
OCTAFLUOROPROPANE.gamout	Energy:    -912.0154176
C         -0.95503       -0.97036        1.70426
C          0.33959       -0.53484        0.96853
C          1.67281       -1.03132        1.58706
F         -1.04972       -2.29815        1.72788
F         -2.00891       -0.47244        1.06164
F         -0.95645       -0.51219        2.95486
F          0.27333       -0.99690       -0.29153
F          0.37064        0.80820        0.94831
F          2.68609       -0.58087        0.85099
F          1.80420       -0.57580        2.83100
F          1.70923       -2.36201        1.60414
