12
OCTAFLUOROCYCLOBUTANE.gamout	Energy:    -950.0099835
C          4.36547        0.84338        0.54198
F          4.48372        2.12512        0.90299
F          3.24862        0.31793        1.04548
C          5.67216        0.01617        0.81243
C          4.56417        0.63207       -1.00004
F          5.41634       -1.21131        1.27705
F          6.58024        0.62457        1.57541
C          5.98248        0.02134       -0.72541
F          3.70911       -0.25942       -1.51220
F          4.56423        1.74878       -1.72777
F          6.97381        0.85949       -1.04653
F          6.19406       -1.17880       -1.26478
