56
OCTADECANOIC_ACID.gamout	Energy:    -856.8908340
C          1.17309       -0.21501        0.28054
C          0.65515        0.00405       -1.14596
C          2.69904       -0.26700        0.37883
C         -0.87400        0.05311       -1.25512
C         -1.39642        0.26392       -2.68322
C         -2.92691        0.30344       -2.79150
C         -3.45183        0.50272       -4.22085
C         -4.98300        0.53151       -4.32849
C         -5.51098        0.71922       -5.75855
C         -7.04265        0.73829       -5.86455
C         -7.57379        0.91618       -7.29479
C         -9.10570        0.92770       -7.39847
C         -9.63884        1.09826       -8.82880
C        -11.17084        1.10430       -8.93027
C        -11.70508        1.26917      -10.36058
C        -13.23623        1.26966      -10.45265
C        -13.76602        1.42855      -11.87818
C        -15.28794        1.42312      -11.96589
O        -16.02663        1.30858      -11.02804
O        -15.79372        1.55870      -13.21683
H          0.74588       -1.15333        0.68005
H          0.78981        0.58981        0.93499
H          1.04046       -0.80230       -1.79885
H          1.08257        0.94244       -1.54741
H          3.11369       -1.08682       -0.23229
H          3.02961       -0.42709        1.41726
H          3.15783        0.67166        0.02412
H         -1.25924        0.85870       -0.60151
H         -1.29653       -0.88622       -0.85096
H         -1.00899       -0.54331       -3.33355
H         -0.97567        1.20254       -3.09085
H         -3.31708        1.11005       -2.14209
H         -3.34359       -0.63634       -2.38230
H         -3.05965       -0.30582       -4.86672
H         -3.03753        1.44164       -4.63443
H         -5.37785        1.33930       -3.68340
H         -5.39311       -0.40863       -3.91344
H         -5.11457       -0.09040       -6.40048
H         -5.10312        1.65848       -6.17782
H         -7.44123        1.54721       -5.22319
H         -7.44694       -0.20198       -5.44410
H         -7.17432        0.10570       -7.93375
H         -7.17144        1.85570       -7.71893
H         -9.50688        1.73757       -6.76002
H         -9.50554       -0.01251       -6.97375
H         -9.23686        0.28698       -9.46527
H         -9.24016        2.03791       -9.25628
H        -11.57454        1.91493       -8.29484
H        -11.56793        0.16436       -8.50301
H        -11.30079        0.45700      -10.99484
H        -11.30899        2.20896      -10.79071
H        -13.65427        2.07807       -9.82905
H        -13.64244        0.33467      -10.03098
H        -13.38720        0.61901      -12.53128
H        -13.40212        2.37040      -12.33189
H        -15.08073        1.64005      -13.86570
