40
OCTYL-4-HYDROXYBENZOATE.gamout	Energy:    -809.4651231
O         -1.27094       -0.18323        0.09514
O         -1.47140        0.93492       -1.85451
O         -6.99150        2.27082        1.07641
C          3.68765        0.58548        0.24300
C          5.07999        0.00855       -0.04386
C          2.53050       -0.33108       -0.17478
C          6.23457        0.92805        0.37261
C          1.14512        0.25391        0.12237
C          7.62638        0.35307        0.08696
C          0.01623       -0.68538       -0.29069
C          8.76969        1.28055        0.50301
C         -1.92347        0.61376       -0.77689
C         -3.25228        1.03772       -0.26486
C         -3.74603        0.63970        0.98903
C         -4.04108        1.86696       -1.07430
C         -4.99701        1.05953        1.42420
C         -5.29431        2.29153       -0.64613
C         -5.78064        1.88949        0.60761
H          3.60211        0.81033        1.32294
H          3.58227        1.55822       -0.27289
H          5.16590       -0.21614       -1.12387
H          5.18574       -0.96445        0.47256
H          2.63438       -1.30557        0.33911
H          2.61148       -0.55083       -1.25568
H          6.15000        1.15581        1.45234
H          6.13061        1.90053       -0.14532
H          1.04998        0.46893        1.20157
H          1.02432        1.21419       -0.40750
H          7.73186       -0.61815        0.60517
H          7.70994        0.12567       -0.99198
H          0.02488       -0.85621       -1.37790
H          0.10759       -1.65371        0.22565
H          8.74125        1.49443        1.58515
H          8.71345        2.24826       -0.02424
H          9.75152        0.83561        0.27730
H         -3.13603       -0.00470        1.62248
H         -3.64747        2.16972       -2.04596
H         -5.39320        0.75760        2.39507
H         -5.90483        2.93868       -1.28316
H         -7.43075        2.83521        0.42614
