20
OHEMIM+1.gamout	Energy:    -419.1955948
C         -3.53448        1.12763        0.72742
N         -2.34306        0.45707        0.19353
H         -4.03958        1.65695       -0.09049
H         -3.23273        1.85647        1.49092
H         -4.22214        0.39145        1.16883
C         -2.16435        0.03969       -1.10998
C         -0.94716       -0.57989       -1.17085
N         -0.40512       -0.53642        0.09835
C         -1.26579        0.09807        0.90452
C          0.92144       -1.04490        0.47498
C          2.06435       -0.05719        0.15590
H          1.09360       -1.97818       -0.07905
H          0.89481       -1.29322        1.54597
O          3.29633       -0.69443        0.30727
H          1.96313        0.85396        0.77613
H          1.97567        0.26007       -0.89756
H          3.61807       -0.59764        1.21327
H         -1.11878        0.28136        1.96728
H         -2.90954        0.21407       -1.88148
H         -0.43147       -1.04744       -2.00635
