37
OMIM+1.gamout	Energy:    -579.6180848
C         -0.74940       -0.22242        0.51557
C          0.12508        0.65430       -0.38503
N          1.25531        1.26738        0.34386
H         -0.45015        1.48037       -0.82962
H          0.55630        0.07772       -1.21737
C          2.45547        0.70681        0.53082
C          2.44660        2.62599        1.61870
C          1.22710        2.47017        1.01979
C          4.58802        1.27380        1.70110
H          0.35226        3.11589        1.02152
N          3.19811        1.51239        1.30169
H          2.77617       -0.25087        0.12439
H          2.83567        3.43210        2.23657
H          4.79469        0.19676        1.66525
H          4.72950        1.63009        2.73012
H          5.27600        1.80723        1.02776
C         -1.92299       -0.85484       -0.24369
C         -2.80273       -1.74700        0.64380
C         -3.98247       -2.39250       -0.09820
C         -4.86948       -3.27453        0.79041
C         -6.03711       -3.93286        0.04577
C         -6.91912       -4.80366        0.94151
H         -1.12672        0.38916        1.35451
H         -0.12111       -1.01383        0.96309
H         -1.53117       -1.44772       -1.09093
H         -2.54106       -0.05519       -0.69169
H         -3.18648       -1.14831        1.49123
H         -2.17592       -2.53962        1.09435
H         -3.59430       -2.99619       -0.94031
H         -4.60134       -1.59892       -0.55785
H         -4.24868       -4.06093        1.26059
H         -5.26763       -2.66758        1.62585
H         -5.63894       -4.54452       -0.78504
H         -6.65464       -3.14837       -0.42984
H         -7.73411       -5.26988        0.36638
H         -6.33948       -5.61598        1.41210
H         -7.38114       -4.21424        1.75175
