42
OMPYR+1.gamout	Energy:    -565.9630824
N          0.04768       -0.11463       -0.28938
C         -0.57349        1.09457       -1.01167
C          1.19216        0.46743        0.55777
C          1.36383        1.90786        0.09059
H          2.08052       -0.16312        0.44066
H          0.87513        0.42195        1.60758
C         -0.06485        2.32055       -0.26697
H         -1.66334        0.97142       -1.03232
H         -0.20107        1.07997       -2.04437
H         -0.66131        2.51553        0.63986
H         -0.11881        3.21973       -0.89636
H          2.01665        1.95848       -0.79618
H          1.82108        2.52823        0.87364
C         -0.98070       -0.74930        0.59190
H         -1.42855        0.02430        1.22741
H         -0.50866       -1.51153        1.22131
H         -1.75485       -1.21041       -0.03407
C          0.56612       -1.10337       -1.32334
C          1.09827       -2.43348       -0.79927
H          1.34677       -0.55902       -1.87462
H         -0.27054       -1.27151       -2.01813
C          1.65149       -3.27828       -1.96024
H          0.30147       -2.99590       -0.28862
H          1.90202       -2.27074       -0.06015
C          2.31628       -4.59175       -1.52105
H          0.83311       -3.49377       -2.67120
H          2.39115       -2.67687       -2.51652
C          1.39441       -5.60757       -0.83334
H          3.17052       -4.36053       -0.85762
H          2.75608       -5.05665       -2.41932
C          2.10322       -6.92439       -0.48732
H          0.53022       -5.82305       -1.49033
H          0.97539       -5.16939        0.09028
C          1.21119       -7.99446        0.15878
H          2.95871       -6.71095        0.18136
H          2.54078       -7.34317       -1.41079
C          0.66250       -7.63086        1.54027
H         -0.01227       -6.75855        1.50690
H          1.47654       -7.39657        2.24756
H          0.08710       -8.46643        1.96793
H          1.79821       -8.92482        0.24027
H          0.37253       -8.23096       -0.52209
