8
OXALIC_ACID.gamout	Energy:    -377.8712336
C          1.89519        2.18145        0.09791
C          3.08164        1.19801        0.14100
O          4.23886        1.85935        0.05711
O          2.97027        0.00640        0.23649
O          0.73822        1.52000        0.18395
O          2.00634        3.37292        0.00054
H          4.94833        1.19369        0.08898
H          0.02855        2.18543        0.15172
