6
OXALATE_DIANION-2.gamout	Energy:    -376.7201476
O         -2.03057       -1.18655       -0.00000
O          2.02857        1.18317       -0.00000
O         -0.00164       -2.32555       -0.00000
O          0.00352        2.32863       -0.00000
C         -1.01723       -1.75796        0.00000
C          1.01739        1.75836        0.00000
