8
OXAZOLE.gamout	Energy:    -245.7562739
C          1.03243        2.03005        0.04911
C          0.85710        0.68180        0.13040
N          2.39057        2.30589        0.03181
O          2.09248        0.10670        0.16453
C          2.95673        1.14497        0.10150
H          0.28094        2.81642        0.00215
H         -0.00019        0.01636        0.17092
H          4.01907        0.90460        0.11549
