42
OXPRENOLOL.gamout	Energy:    -864.6512188
O         -0.20638       -0.87719       -0.88969
O         -1.99430       -0.28978       -3.03797
O          1.76174        0.63221       -0.17589
N         -3.11629        0.48824        0.41878
C         -2.55481        0.72014       -0.89795
C         -2.41753       -0.56970       -1.71817
C         -2.93992        1.57886        1.38402
C         -1.42637       -1.55119       -1.11276
C         -1.52391        1.56172        1.96549
C         -3.98543        1.45187        2.49080
C          0.83635       -1.52295       -0.32232
C          1.93194       -0.69716        0.04895
C          0.90602       -2.89864       -0.08853
C          3.06772       -1.27465        0.61858
C          2.05182       -3.46567        0.48903
C          3.12795       -2.65977        0.83696
C          2.84777        1.51182        0.03985
C          2.42904        2.88354       -0.38980
C          2.64164        3.99380        0.31958
H         -1.54868        1.15214       -0.79595
H         -3.15063        1.44608       -1.50320
H         -3.40072       -1.09391       -1.72680
H         -3.09603        2.56556        0.88848
H         -4.10636        0.26266        0.33524
H         -1.29175       -2.39177       -1.81716
H         -1.83222       -1.93609       -0.16076
H         -1.35879        2.43182        2.62105
H         -1.36720        0.64180        2.55236
H         -0.75521        1.58365        1.17962
H         -5.01004        1.52433        2.08805
H         -3.86379        2.25168        3.23682
H         -3.88828        0.48124        3.00554
H         -2.48365        0.47990       -3.35531
H          0.07007       -3.54293       -0.36170
H          3.91392       -0.65127        0.90768
H          2.09060       -4.54362        0.66120
H          4.02358       -3.09545        1.28460
H          3.72139        1.17988       -0.55888
H          3.15814        1.51464        1.10234
H          1.94109        2.93161       -1.37053
H          2.35225        4.97701       -0.05984
H          3.11905        3.96221        1.30487
