26
P-AMINOAZOBENZENE.gamout	Energy:    -627.2863812
N          6.46376        3.99033       -0.60316
N          6.99479        2.85886       -0.47508
C          6.11743        1.76698       -0.40772
C          7.36123        5.08088       -0.66786
C          6.70202        0.49567       -0.26972
C          4.71031        1.85795       -0.46500
C          6.77854        6.34967       -0.81678
C          8.76299        4.96798       -0.59357
C          5.92184       -0.65071       -0.19234
C          3.92693        0.71890       -0.38823
C          7.57790        7.49100       -0.89100
C          9.55495        6.11025       -0.66786
C          4.51479       -0.56217       -0.24978
C          8.96800        7.37398       -0.81682
N          3.73053       -1.69243       -0.21580
H          7.79163        0.43687       -0.22378
H          4.25950        2.84567       -0.56842
H          5.68988        6.40950       -0.87265
H          9.20003        3.97592       -0.47903
H          6.39458       -1.63081       -0.08925
H          2.83723        0.80040       -0.43645
H          7.11635        8.47438       -1.00613
H         10.64296        6.02110       -0.60915
H          9.59735        8.26535       -0.87458
H          2.74310       -1.58756       -0.02006
H          4.14344       -2.55618        0.11250
