15
P-BROMOTOLUENE.gamout	Energy:   -2844.3214276
Br        -3.25894        0.00614       -0.00285
C          1.45983       -0.00787        0.00168
C          0.73379       -1.20400        0.07435
C          0.73880        1.19419       -0.07240
C          2.96858        0.00115        0.00198
C         -0.66478       -1.21112        0.07381
C         -0.65679        1.20860       -0.07429
C         -1.35217       -0.00051       -0.00081
H          1.26914       -2.15604        0.13291
H          1.27875        2.14413       -0.13015
H          3.36653        0.57519        0.85573
H          3.37813       -1.01768        0.06401
H          3.36722        0.46681       -0.91520
H         -1.21184       -2.15324        0.13094
H         -1.19953        2.15320       -0.13240
