16
P-BROMOANISOLE.gamout	Energy:   -2919.4396692
Br        -2.41686       -0.08385       -0.00018
C         -0.51245        0.04511       -0.00010
C          0.09906        1.30401        0.00029
C          1.48714        1.39562        0.00017
C          2.28174        0.23672       -0.00004
C          1.66061       -1.02104       -0.00047
C          0.26278       -1.11150        0.00193
O          3.62249        0.43772       -0.00015
C          4.48522       -0.67612       -0.00039
H         -0.51200        2.20793        0.00048
H          1.98694        2.36636        0.00039
H          2.24730       -1.93982       -0.00080
H         -0.21674       -2.09170        0.00167
H          4.34583       -1.30498        0.89800
H          4.34583       -1.30461       -0.89904
H          5.50949       -0.27934       -0.00034
