15
P-CHLOROBENZOIC_ACID.gamout	Energy:    -879.6895446
C          0.84082        1.86100       -0.46588
C          1.36867        0.61490       -0.13949
C         -0.54819        2.01973       -0.52287
C         -1.40841        0.94957       -0.25791
Cl        -1.21751        3.57903       -0.93157
C         -0.86951       -0.29425        0.06797
C          0.52090       -0.46926        0.12922
C          1.14363       -1.77663        0.47260
O          0.23635       -2.74803        0.71138
O          2.33474       -1.97633        0.53849
H          1.49255        2.70988       -0.67644
H          2.44774        0.45901       -0.08695
H         -2.48794        1.09697       -0.30841
H         -1.52801       -1.13805        0.27720
H          0.74347       -3.55017        0.92362
