14
P-CHLOROANILINE.gamout	Energy:    -746.6216237
C          6.33606        1.86120       -0.68325
C          6.85306        0.59603       -0.34088
C          4.93590        2.01440       -0.72169
N          7.17958        2.93690       -0.92345
C          4.08713        0.94788       -0.43053
C          4.62160       -0.29744       -0.09330
C          6.00655       -0.47216       -0.04917
Cl         3.55494       -1.63984        0.27122
H          7.93619        0.45060       -0.29967
H          4.50793        2.98667       -0.98153
H          6.79027        3.70870       -1.45242
H          8.13266        2.71590       -1.18770
H          3.00435        1.07994       -0.46614
H          6.42038       -1.44733        0.21329
