13
P-CHLOROPHENOL.gamout	Energy:    -766.4683094
C          6.26058        1.85763       -0.48671
C          7.07232        0.77053       -0.13230
C          4.87988        1.70019       -0.58976
C          4.29951        0.45257       -0.33895
C          5.09787       -0.63600        0.01452
Cl         2.56356        0.25497       -0.46980
C          6.48173       -0.47571        0.11720
O          8.41070        0.98203       -0.04685
H          6.73066        2.82407       -0.67882
H          4.24822        2.54608       -0.86551
H          4.63917       -1.60674        0.20868
H          7.10714       -1.33027        0.39441
H          8.85412        0.16088        0.20365
