20
P-COUMARIC_ACID.gamout	Energy:    -572.7163077
C          0.82127       -0.46034       -0.91058
C          0.23589       -0.36408        0.30367
C         -1.17482       -0.55224        0.63661
C          2.26030       -0.25224       -1.14744
C         -1.59182       -0.40624        1.97312
C         -2.16022       -0.87742       -0.32083
O          2.96548        0.04893       -0.02766
O          2.79339       -0.33641       -2.23242
C         -2.92391       -0.57414        2.34546
C         -3.48928       -1.04725        0.03693
C         -3.88456       -0.89666        1.37736
O         -5.19356       -1.07333        1.67062
H          0.26469       -0.70257       -1.81855
H          0.88805       -0.11524        1.14679
H         -0.85332       -0.15465        2.73883
H         -1.88003       -1.00017       -1.36866
H          3.88664        0.15979       -0.31656
H         -3.22019       -0.45442        3.39169
H         -4.24745       -1.29845       -0.70645
H         -5.33719       -0.94364        2.61794
