12
P-DIFLUOROBENZENE.gamout	Energy:    -430.1854494
F          7.13629        2.87308       -0.93950
C          6.32017        1.84422       -0.66654
C          6.87261        0.60841       -0.33646
C          4.94140        2.03752       -0.72021
C          6.02351       -0.46330       -0.05227
C          4.09227        0.96585       -0.43603
C          4.64475       -0.26991       -0.10596
F          3.82860       -1.29869        0.16697
H          7.95814        0.49778       -0.30544
H          4.54797        3.02120       -0.98297
H          6.41689       -1.44698        0.21049
H          3.00677        1.07645       -0.46704
