24
P-DIETHYLBENZENE.gamout	Energy:    -388.9612250
C         -0.11445       -1.12457        0.77455
C         -0.60856       -0.78111       -0.49187
C         -1.03225        0.51854       -0.77501
C         -0.98273        1.52702        0.19830
C         -0.48827        1.18367        1.46473
C         -0.06308       -0.11545        1.74721
C          0.30284       -2.54195        1.09474
H         -0.66322       -1.54633       -1.27209
H         -1.41389        0.75343       -1.77321
C         -1.40017        2.94445       -0.12083
H         -0.43533        1.94787        2.24597
H          0.31579       -0.35051        2.74639
H         -1.79369        3.42517        0.79085
H         -2.23231        2.92620       -0.84517
C         -0.25455        3.79654       -0.68956
H          0.13529        3.36214       -1.62422
H          0.58376        3.85872        0.02307
H         -0.59365        4.82234       -0.90653
H          0.69460       -3.02221        0.18195
C         -0.84237       -3.39367        1.66355
H          1.13795       -2.52330        1.81549
H         -1.23562       -2.95623        2.59548
H         -1.67951       -3.45717        0.94966
H         -0.50336       -4.41846        1.88482
