16
P-DINITROBENZENE.gamout	Energy:    -640.4521530
O          6.69678        4.03930       -1.25268
N          7.21632        2.97466       -0.96648
O          8.41578        2.76704       -0.90777
C          6.31382        1.83668       -0.66452
C          6.87710        0.60364       -0.33549
C          4.93511        2.04038       -0.72064
C          6.02997       -0.46584       -0.05203
C          4.08812        0.97084       -0.43709
C          4.65113       -0.26237       -0.10804
N          3.74844       -1.40054        0.19398
O          2.54897       -1.19297        0.13525
O          4.26812       -2.46512        0.48017
H          7.96126        0.50091       -0.30674
H          4.54974        3.02490       -0.98321
H          6.41530       -1.45035        0.21061
H          3.00397        1.07355       -0.46585
