30
P-DIISOPROPYLBENZENE.gamout	Energy:    -467.4714803
C          0.74963        5.69209        3.01793
C          1.91122        6.04946        2.07742
C          2.47364        7.44275        2.39997
C          2.99535        4.98296        2.08480
C          3.72632        4.68377        3.24599
C          3.30319        4.25726        0.92850
C          4.71720        3.70401        3.24688
C          4.29744        3.27429        0.92954
C          5.02554        2.97566        2.08656
C          6.10339        1.90413        2.08045
C          7.48992        2.48112        2.40366
C          5.75840        0.74015        3.02160
H          1.08378        5.64583        4.06781
H          0.31450        4.71299        2.76394
H         -0.05153        6.44678        2.95645
H          1.50569        6.08708        1.05143
H          1.68378        8.20863        2.33259
H          3.27853        7.72041        1.70208
H          2.88877        7.48190        3.42087
H          3.52098        5.22448        4.17327
H          2.75515        4.46274        0.00467
H          5.25942        3.50558        4.17477
H          4.50998        2.72782        0.00644
H          6.14597        1.49816        1.05485
H          8.26395        1.69921        2.33728
H          7.52378        2.89714        3.42438
H          7.76015        3.28845        1.70573
H          6.52172       -0.05270        2.96121
H          4.78435        0.29426        2.76740
H          5.70784        1.07494        4.07108
