19
P-ETHYLPHENOL.gamout	Energy:    -385.5798616
C          1.03681        0.96978        1.09508
C          1.72354        2.09672        1.88249
C          3.23385        2.02793        1.83484
C          3.96268        2.72044        0.85959
C          3.95606        1.23698        2.74301
C          5.35473        2.63026        0.78597
C          5.34412        1.13529        2.68401
C          6.05609        1.83412        1.69975
O          7.41016        1.70798        1.68248
H         -0.06054        1.05424        1.15502
H          1.32320        0.99803        0.03105
H          1.32363       -0.01956        1.48753
H          1.39062        3.07116        1.48648
H          1.38746        2.05964        2.93317
H          3.43325        3.35034        0.13889
H          3.41800        0.68834        3.52172
H          5.89993        3.18617        0.01619
H          5.89977        0.52244        3.39633
H          7.77213        2.24017        0.96201
