13
P-FLUOROPHENOL.gamout	Energy:    -406.1915124
C          6.32560        1.85221       -0.66840
C          6.86328        0.60965       -0.33661
C          4.95006        2.04936       -0.72328
F          7.15219        2.87713       -0.94022
C          6.00820       -0.45430       -0.05471
C          4.61778       -0.27610       -0.10455
C          4.09537        0.98025       -0.44006
O          3.83223       -1.34925        0.18001
H          7.94774        0.48865       -0.30279
H          4.55789        3.03352       -0.98613
H          6.40095       -1.43828        0.20796
H          3.01151        1.12708       -0.48109
H          2.90258       -1.09613        0.11247
