19
P-FLUOROPHENETOLE.gamout	Energy:    -484.6971479
C          6.34509        1.75714       -0.64198
C          6.77941        0.46542       -0.29673
C          4.98778        2.05216       -0.72402
C          4.05389        1.04962       -0.45971
F          2.74164        1.33107       -0.53904
C          4.46006       -0.23317       -0.11671
C          5.82597       -0.53050       -0.03348
O          8.12317        0.28316       -0.24518
C          8.64373       -0.98922        0.09439
C         10.15607       -0.89561        0.06879
H          7.10088        2.51876       -0.84313
H          4.63925        3.05173       -0.99109
H          3.70641       -0.99701        0.08462
H          6.13006       -1.54161        0.23688
H          8.28719       -1.28928        1.09889
H          8.28485       -1.75018       -0.62538
H         10.60383       -1.86701        0.33115
H         10.51246       -0.60781       -0.93227
H         10.51067       -0.14299        0.78985
