16
P-HYDROXYBENZOIC_ACID.gamout	Energy:    -495.4224183
O          7.40711        4.04636       -0.68899
C          7.82147        2.75872       -0.73681
O          8.98175        2.46773       -0.92413
C          6.72096        1.78495       -0.53893
C          7.02916        0.41413       -0.56592
C          5.39270        2.18267       -0.32749
C          6.03838       -0.54080       -0.38619
C          4.70973       -0.13712       -0.17478
O          3.77893       -1.10319       -0.00488
C          4.39322        1.23005       -0.14669
H          8.20125        4.58913       -0.82908
H          8.06661        0.11851       -0.73186
H          5.14616        3.24476       -0.30567
H          6.26468       -1.60823       -0.40467
H          2.91067       -0.70002        0.13084
H          3.35787        1.54381        0.01823
