15
P-HYDROXYBENZOATE-1.gamout	Energy:    -494.8514845
O          3.50142       -0.03370       -0.00490
O         -2.78225       -1.13108        0.00026
O         -2.78864        1.13556        0.00132
C         -0.69840        0.00714        0.00262
C          0.01870        1.20862        0.00122
C          0.02613       -1.19240        0.00139
C          2.12514        0.00793        0.00206
C          1.41781        1.21709        0.00362
C          1.42313       -1.20310        0.00162
C         -2.25599        0.00357        0.00142
H         -0.56851        2.13081       -0.00741
H         -0.55951       -2.11545       -0.00417
H          1.97183        2.16544        0.00257
H          1.99209       -2.13722       -0.00046
H          3.81914        0.87800       -0.00178
