15
P-HYDROXY_BENZALDEHYDE.gamout	Energy:    -420.2552341
O         -0.00671        3.25063        0.14868
C          0.66962        2.24658        0.09957
C          2.14478        2.21432        0.14015
C          2.87959        3.40689        0.24229
C          2.83228        0.99155        0.07711
C          4.26764        3.37796        0.28079
C          4.22078        0.94993        0.11460
C          4.94727        2.14742        0.21703
O          6.29535        2.06195        0.25077
H          0.19024        1.23482        0.01654
H          2.33292        4.35126        0.29071
H          2.26269        0.06089       -0.00271
H          4.83898        4.30816        0.36071
H          4.76802        0.00738        0.06640
H          6.67822        2.94713        0.32175
