15
P-NITROPHENOL.gamout	Energy:    -511.3310738
C          6.36892        1.84794       -0.66735
C          6.90170        0.59076       -0.33167
C          4.99319        2.02912       -0.71804
C          4.14823        0.95200       -0.43240
C          4.65977       -0.30233       -0.09774
N          2.69275        1.14441       -0.48564
C          6.03874       -0.48161       -0.04766
O          8.24523        0.47191       -0.29763
O          2.27889        2.25521       -0.78238
O          1.98401        0.18199       -0.22971
H          7.05718        2.66652       -0.88413
H          4.55491        2.99274       -0.97536
H          3.97080       -1.11813        0.11812
H          6.45333       -1.45985        0.21343
H          8.49282       -0.43124       -0.05651
