16
P-NITROANILINE.gamout	Energy:    -491.4869551
O          6.68908        4.03399       -1.23386
N          7.20176        2.95952       -0.94883
O          8.40835        2.76230       -0.88652
C          6.31258        1.83525       -0.66350
N          3.77609       -1.36856        0.17494
C          4.60901       -0.32296       -0.12361
C          6.85803        0.58908       -0.33982
C          4.92760        2.01755       -0.72184
C          6.01429       -0.47880       -0.07250
C          4.08492        0.94887       -0.45415
H          2.79148       -1.29674       -0.04446
H          4.15352       -2.30558        0.22310
H          7.94175        0.48057       -0.30324
H          4.53535        3.00130       -0.97854
H          6.43553       -1.45478        0.18216
H          3.00134        1.08633       -0.49836
