18
P-NITROANISOLE.gamout	Energy:    -550.5750097
C          6.41155        1.73972       -0.89756
C          6.89821        0.50467       -0.46966
C          5.02630        1.98619       -0.88927
C          6.00712       -0.47488       -0.03634
C          4.62647       -0.24441       -0.02138
N          6.52594       -1.77312        0.41367
C          4.14173        0.98215       -0.44704
O          4.45325        3.14055       -1.28125
C          5.26201        4.20530       -1.73870
O          5.71502       -2.60670        0.78952
O          7.73628       -1.94186        0.38549
H          7.11529        2.50053       -1.23407
H          7.96600        0.28743       -0.46621
H          3.95966       -1.03349        0.32483
H          3.07241        1.19987       -0.45024
H          4.57798        5.02379       -1.99836
H          5.95814        4.55331       -0.95527
H          5.84089        3.92273       -2.63576
