28
P-P-DDT.gamout	Energy:   -2838.1767056
C          7.32707        2.84999       -0.97192
C          6.33702        1.72731       -0.65959
C          8.56219        2.84810       -0.06985
C          6.68049        4.25257       -1.20184
C          9.79880        2.51796       -0.64410
C          8.53024        3.11559        1.30726
C          6.18589        0.69582       -1.59777
C          5.60325        1.64347        0.53306
Cl         7.94847        5.39154       -1.78738
Cl         5.41663        4.11276       -2.47766
Cl         5.91152        4.97749        0.26144
C          9.68818        3.05737        2.08263
C         10.90426        2.72445        1.48386
C         10.96590        2.45201        0.11725
Cl        12.35625        2.64796        2.45110
C          5.33481       -0.38449       -1.36559
C          4.61475       -0.43971       -0.17243
C          4.74597        0.57190        0.78019
Cl         3.54465       -1.78501        0.13296
H          7.70493        2.63288       -1.98009
H          9.85833        2.30823       -1.71567
H          7.59539        3.39023        1.79376
H          6.74340        0.73509       -2.53760
H          5.68345        2.42806        1.28389
H          9.64963        3.26925        3.15189
H         11.91921        2.19205       -0.34449
H          5.22722       -1.17987       -2.10399
H          4.17837        0.51788        1.70997
