16
P-PHENYLENEDIAMINE.gamout	Energy:    -342.5004899
C          6.35108        1.87781       -0.69659
C          6.85939        0.61418       -0.34896
C          4.95346        2.02482       -0.72758
N          7.20253        2.92924       -1.06295
C          6.01133       -0.45044       -0.04499
C          4.61376       -0.30360       -0.07590
C          4.10569        0.96002       -0.42357
N          3.76237       -1.35486        0.29050
H          7.94232        0.46015       -0.32078
H          4.52096        2.99203       -1.00073
H          6.81025        3.85646       -0.93293
H          8.13653        2.87422       -0.66901
H          6.44375       -1.41767        0.22819
H          3.02276        1.11394       -0.45169
H          2.82831       -1.29983       -0.10328
H          4.15458       -2.28211        0.16058
