12
P-QUINONE.gamout	Energy:    -380.9644078
O          1.02779       -0.06629       -0.50867
C          2.20719       -0.06160       -0.20045
C          2.96464       -1.32632       -0.00224
C          2.95517        1.20916       -0.00514
C          4.26502       -1.32108        0.33920
C          4.25554        1.21437        0.33630
C          5.01278       -0.05030        0.53571
O          6.19173       -0.04555        0.84581
H          2.39731       -2.24817       -0.15138
H          2.38112        2.12650       -0.15631
H          4.83923       -2.23841        0.48972
H          4.82297        2.13623        0.48479
