25
P-TERT-BUTYLPHENOL.gamout	Energy:    -464.0875648
C          7.61654        3.77180        0.30954
C          7.24512        3.02961       -0.99255
C          6.62064        4.04587       -1.96186
C          8.53023        2.47568       -1.64413
C          6.28632        1.86917       -0.67099
C          6.68721        0.83708        0.19983
C          4.99558        1.76695       -1.20737
C          5.85761       -0.23327        0.51943
C          4.14756        0.69770       -0.89734
C          4.57111       -0.31313       -0.03085
O          3.79415       -1.37591        0.30710
H          8.10909        3.10549        1.03391
H          6.72056        4.18923        0.79541
H          8.30830        4.60315        0.09621
H          6.35843        3.58395       -2.92647
H          5.71175        4.50554       -1.54325
H          7.33587        4.85768       -2.16867
H          8.30028        1.94650       -2.58246
H          9.05387        1.76905       -0.98289
H          9.22944        3.29566       -1.87665
H          7.68280        0.86261        0.64906
H          4.61756        2.52928       -1.88854
H          6.18915       -1.02253        1.19667
H          3.14615        0.65478       -1.33776
H          2.94154       -1.30384       -0.14151
