32
P-TERPHENYL.gamout	Energy:    -693.4211369
C          6.08784        1.15033        0.71117
C          5.30647        2.24281        1.13087
C          5.98751        3.42353        1.48087
C          3.82331        2.15266        1.20134
C          7.47768        1.23448        0.64469
C          7.37732        3.50749        1.41447
C          3.01118        3.24921        0.85577
C          3.18699        0.96746        1.61531
C          8.15858        2.41514        0.99471
C          1.61974        3.16429        0.92222
C          1.79567        0.88148        1.68047
C          9.64127        2.50534        0.92441
C          1.00425        1.97968        1.33452
C         10.45330        1.40883        1.26975
C         10.27774        3.69036        0.51060
C         11.84462        1.49363        1.20350
C         11.66898        3.77629        0.44565
C         12.46026        2.67813        0.79145
H          5.59636        0.22741        0.39617
H          5.42104        4.28256        1.84648
H          8.04427        0.37550        0.27918
H          7.86890        4.43034        1.72937
H          3.47686        4.17296        0.50516
H          3.79292        0.10964        1.91554
H          1.01216        4.02789        0.64068
H          1.32731       -0.04813        2.01285
H         -0.08547        1.91265        1.38597
H          9.98758        0.48511        1.62029
H          9.67202        4.54835        0.21055
H         12.45206        0.62992        1.48487
H         12.13733        4.70588        0.11335
H         13.54996        2.74507        0.74010
