17
P-TOLUIDINE.gamout	Energy:    -326.4763893
C          7.27065        3.04009       -0.99074
C          6.35292        1.88727       -0.66578
C          6.85674        0.61068       -0.37650
C          4.95873        2.03728       -0.66496
C          6.01600       -0.46705       -0.10322
C          4.61732       -0.30963       -0.10669
N          3.77306       -1.36514        0.22348
C          4.10488        0.96926       -0.39363
H          8.23194        2.95255       -0.46024
H          7.50147        3.08960       -2.07075
H          6.82054        4.00617       -0.71311
H          7.93934        0.45167       -0.36321
H          4.52487        3.01826       -0.88113
H          6.44553       -1.44677        0.12495
H          2.81842       -1.29319       -0.11037
H          4.15547       -2.29615        0.10071
H          3.02241        1.12641       -0.39422
