19
P-TOLUENESULFONIC_ACID.gamout	Energy:    -894.5401512
S          2.12690        0.17693        0.04067
O          2.50679       -0.38288       -1.45992
O          2.55422        1.57429        0.09373
O          2.62414       -0.83722        0.95382
C          0.34286        0.11756        0.03135
C         -2.45389        0.00891        0.00921
C         -0.38751        1.29350       -0.14461
C         -0.29700       -1.11149        0.20980
C         -1.78181        1.23028       -0.15008
C         -1.68958       -1.15557        0.19394
C         -3.95806       -0.05595       -0.03439
H          0.13881        2.24263       -0.25479
H          0.29345       -2.01437        0.37288
H         -2.35998        2.14918       -0.27953
H         -2.19740       -2.11368        0.33411
H         -4.34491       -0.88825        0.57240
H         -4.41450        0.87685        0.32905
H         -4.31315       -0.21295       -1.06853
H          2.57267        0.38516       -2.05250
