17
P-TOLUALDEHYDE.gamout	Energy:    -384.3784862
O          2.81035        0.76929        6.93162
C          1.93361        0.55362        6.12533
C          1.93842        1.02465        4.72202
C          0.87081        0.71825        3.86931
C          3.01388        1.78231        4.22953
C          0.87428        1.16013        2.54605
C          3.01199        2.21959        2.91130
C          1.94260        1.91824        2.04579
C          1.95467        2.41257        0.62233
H          1.02590       -0.04247        6.40867
H          0.03201        0.12706        4.24772
H          3.84067        2.01270        4.90499
H          0.03576        0.91332        1.89006
H          3.85383        2.80763        2.53561
H          2.89267        2.13881        0.11151
H          1.11762        1.99888        0.04158
H          1.87818        3.51306        0.58526
