49
PALMITATE-1.gamout	Energy:    -777.8077791
O         -9.63611        0.46878       -0.01074
O         -8.46109       -1.46810       -0.07122
C          1.76973       -0.38113        0.00532
C          0.49761        0.47707        0.03424
C          3.07388        0.42722        0.02352
C         -0.80808       -0.32914        0.00602
C          4.34606       -0.43067       -0.00289
C         -2.08136        0.52848        0.03937
C          5.64977        0.37862        0.00981
C         -3.38993       -0.27388       -0.00200
C          6.92207       -0.47916       -0.01587
C         -4.66652        0.58104        0.03553
C          8.22600        0.32864       -0.00642
C         -5.97349       -0.22320       -0.01897
C          9.49455       -0.53159       -0.03264
C         -7.25303        0.61121        0.02025
C         10.79049        0.28096       -0.02452
C         -8.59761       -0.22389       -0.02651
H          1.76001       -1.07514        0.86754
H          1.75445       -1.02479       -0.89496
H          0.51216        1.11638        0.93775
H          0.51219        1.17567       -0.82439
H          3.08474        1.11917       -0.84033
H          3.08993        1.07291        0.92235
H         -0.81977       -1.03144        0.86171
H         -0.82111       -0.96512       -0.89990
H          4.33757       -1.12022        0.86287
H          4.32956       -1.07877       -0.89997
H         -2.06220        1.23713       -0.81137
H         -2.06859        1.15865        0.94981
H          5.65851        1.06723       -0.85670
H          5.66696        1.02752        0.90630
H         -3.40675       -0.98556        0.84616
H         -3.40074       -0.90111       -0.91425
H          6.91450       -1.16647        0.85167
H          6.90449       -1.12932       -0.91147
H         -4.64098        1.30036       -0.80778
H         -4.65422        1.20391        0.95232
H          8.23601        1.01552       -0.87447
H          8.24697        0.97864        0.88936
H         -6.00932       -0.95052        0.81223
H         -5.99419       -0.84918       -0.92936
H          9.47492       -1.18118       -0.92751
H          9.48663       -1.21728        0.83505
H         -7.28704        1.23652        0.93396
H         -7.28174        1.32930       -0.82282
H         10.85298        0.94953       -0.90038
H         11.67558       -0.37492       -0.04438
H         10.86536        0.91290        0.87717
