28
PARAQUAT_DICHLORIDE.gamout	Energy:    -574.3747928
N          3.58460       -0.01295        0.00217
N         -3.58402        0.01335        0.00358
C          0.69383       -0.00300        0.00277
C         -0.69336        0.00455        0.00305
C          1.51026        1.20681        0.00286
C         -1.50339        1.22052        0.00493
C          1.50337       -1.21928        0.00239
C         -1.50910       -1.20534        0.00153
C          2.86437        1.17501        0.00253
C         -2.85775        1.19611        0.00517
C          2.85773       -1.19539        0.00210
C         -2.86319       -1.17415        0.00172
C          5.02657        0.01230        0.00182
C         -5.02594       -0.01269        0.00380
H          1.04174        2.19046        0.00308
H         -1.03064        2.20194        0.00640
H          1.03033       -2.20055        0.00239
H         -1.04029       -2.18880       -0.00012
H          3.46250        2.08750        0.00250
H         -3.44982        2.11231        0.00663
H          3.44936       -2.11186        0.00187
H         -3.46078       -2.08695        0.00045
H          5.41560       -1.01535        0.00155
H          5.43053        0.52566       -0.89146
H          5.43098        0.52536        0.89506
H         -5.41556        1.01473        0.00534
H         -5.42999       -0.52483       -0.89013
H         -5.42970       -0.52742        0.89637
