16
PE-1.gamout	Energy:    -345.9884238
O         -2.92662        2.48704        0.00031
O         -3.05591        0.22436        0.00361
C         -0.29714       -0.15757       -0.00096
C          1.23311       -0.23078        0.00083
C         -0.87976        1.25398       -0.00155
C          1.78986       -1.65924        0.00030
C         -2.46355        1.32766        0.00080
H         -0.70173       -0.70208        0.87139
H         -0.70027       -0.70149       -0.87439
H          1.62878        0.31261       -0.87965
H          1.62776        0.31236        0.88169
H         -0.52372        1.82598       -0.88088
H         -0.52254        1.82520        0.87808
H          2.89437       -1.67621        0.00092
H          1.44798       -2.22142        0.88743
H          1.44940       -2.22060       -0.88794
