41
PENICILLIN_G.gamout	Energy:   -1427.6402531
S         -1.17790        1.59113       -0.04128
O         -2.05559       -2.15439       -1.52874
O         -5.88351        0.50600       -0.19148
O         -4.98380       -0.54813        1.57820
O          2.09795       -2.16278        0.82533
N         -2.48625       -0.64950        0.25138
N          0.73656       -0.95175       -0.53376
C         -1.29208       -0.02933        0.82479
C         -3.04708        1.71260       -0.12589
C         -3.54001        0.21283       -0.23053
C         -0.44664       -1.20036        0.21688
C         -1.75114       -1.52086       -0.55728
C         -3.55425        2.41504        1.13870
C         -3.44098        2.49993       -1.37407
C         -4.85171       -0.01006        0.51324
C          1.95232       -1.47782       -0.16914
C          3.10553       -1.14225       -1.11644
C          4.17540       -0.29106       -0.46542
C          4.30614        1.06400       -0.79445
C          5.04190       -0.83999        0.49009
C          5.28500        1.85601       -0.19002
C          6.01858       -0.05005        1.09615
C          6.14522        1.29980        0.75779
H         -1.28440        0.08565        1.91866
H         -3.72552       -0.03215       -1.28807
H         -0.20685       -1.95676        0.97944
H         -3.31541        1.84585        2.04815
H         -3.09094        3.40733        1.22419
H         -4.64708        2.55283        1.09654
H         -3.09629        3.54363       -1.31143
H         -3.01335        2.04462       -2.27873
H         -4.53761        2.50714       -1.47041
H          0.66847       -0.38273       -1.36870
H         -6.69021        0.36126        0.33376
H          3.52907       -2.11171       -1.42377
H          2.73239       -0.64799       -2.02567
H          3.63344        1.50436       -1.53551
H          4.93786       -1.89092        0.76658
H          5.37657        2.90990       -0.46365
H          6.68844       -0.49158        1.83760
H          6.91479        1.91457        1.23038
