30
PENTYLCYCLOPENTANE.gamout	Energy:    -392.5514380
C          2.34869        1.77201       -1.51431
C          3.28712        0.89750       -2.36675
C          1.57206        0.78244       -0.62266
C          3.73237       -0.17783       -1.35954
C          2.48162       -0.47398       -0.50217
H          2.96173        2.44866       -0.89141
H          1.69014        2.41008       -2.12490
H          2.67890        0.40422       -3.15140
C          4.41447        1.67840       -3.05492
H          1.32995        1.21984        0.35814
H          0.60950        0.51588       -1.08965
H          4.13584       -1.08145       -1.84105
H          4.53934        0.23718       -0.72820
H          2.75173       -0.69436        0.54226
H          1.95504       -1.36663       -0.87833
H          5.02216        2.18502       -2.28006
H          3.96036        2.48995       -3.65331
C          5.34040        0.85494       -3.96491
H          4.72977        0.33133       -4.72499
H          5.83099        0.05832       -3.37591
C          6.41839        1.68995       -4.67035
H          7.02540        2.21706       -3.90958
H          5.93126        2.48669       -5.26443
C          7.34834        0.88118       -5.58232
H          6.74458        0.36009       -6.34847
H          7.83353        0.08158       -4.99221
C          8.42274        1.72617       -6.27116
H          9.07275        2.22932       -5.53494
H          7.97411        2.51051       -6.90469
H          9.06708        1.10760       -6.91538
