13
PENTACHLOROPHENOL.gamout	Energy:   -2604.0614341
C          6.33346        1.85389       -0.66885
C          6.87650        0.59724       -0.33329
C          4.94170        2.03570       -0.71969
Cl         7.42796        3.15284       -1.01329
C          4.07199        0.96306       -0.43532
Cl         4.29584        3.58816       -1.13467
C          4.60514       -0.29446       -0.09939
Cl         2.35399        1.19158       -0.49924
Cl         3.56163       -1.62876        0.25460
C          5.99639       -0.46516       -0.05147
Cl         6.71114       -2.00556        0.36017
O          8.20856        0.45433       -0.29312
H          8.40976       -0.46501       -0.04826
