13
PENTAFLUOROPHENOL.gamout	Energy:    -802.6631830
C          0.83721        1.40630       -0.37462
C          1.38219        0.16382       -0.04363
C         -0.54886        1.58350       -0.42332
F          1.64143        2.42853       -0.64547
F         -1.06067        2.76948       -0.73925
C         -1.39214        0.50730       -0.13798
C         -0.83701       -0.72824        0.19111
F         -2.71148        0.66056       -0.18013
C          0.54822       -0.92525        0.24506
F         -1.62944       -1.77683        0.46939
O          1.09132       -2.11722        0.56270
F          2.70254        0.01316       -0.00180
H          0.37473       -2.74761        0.73131
