17
PENTANOIC_ACID.gamout	Energy:    -346.5670993
O          2.32594        3.23016        1.48561
O          1.35474        3.77513       -0.45886
C          2.93338        0.68457        0.12374
C          2.77869       -0.82676       -0.07272
C          1.58893        1.43197        0.12205
C          4.11092       -1.57964       -0.06959
C          1.72295        2.92582        0.31388
H          3.45321        0.88649        1.07539
H          3.57751        1.09595       -0.67458
H          2.12495       -1.22904        0.72305
H          2.24829       -1.01895       -1.02324
H          0.95604        1.04746        0.94173
H          1.04715        1.27781       -0.82238
H          3.95974       -2.66123       -0.21182
H          4.77385       -1.22665       -0.87765
H          4.64892       -1.44024        0.88334
H          2.37908        4.20080        1.52454
