27
PENTPY+1.gamout	Energy:    -444.6126814
C         -3.92536       -2.06417        0.59603
C         -3.06952       -0.80337        0.73287
H         -3.89065       -2.67533        1.51326
H         -3.58050       -2.69692       -0.23827
H         -4.97869       -1.80785        0.40729
C         -1.59051       -1.10698        1.00567
C         -0.72391        0.15388        1.12158
C          0.71976       -0.18520        1.50226
H         -0.72561        0.70801        0.16628
H         -1.15204        0.83401        1.87973
H         -1.50560       -1.69879        1.93583
H         -1.18905       -1.74770        0.19962
H         -3.46515       -0.17357        1.55000
H         -3.15158       -0.19600       -0.18658
N          1.59923        1.01738        1.53529
H          1.16593       -0.88562        0.78267
H          0.77610       -0.65340        2.49643
C          2.46461        1.25216        0.52424
C          3.25890        2.38843        0.51791
C          3.15579        3.29716        1.57271
C          2.25556        3.03851        2.60993
C          1.48826        1.88703        2.56565
H          2.50455        0.50517       -0.26884
H          3.95277        2.54978       -0.30848
H          3.77464        4.19676        1.58987
H          2.14707        3.71973        3.45474
H          0.77237        1.62918        3.34710
