12
PENTAFLUOROBENZENE.gamout	Energy:    -727.5372011
F          7.14231        2.87846       -0.94103
C          6.32945        1.86253       -0.67154
C          6.86007        0.61327       -0.33779
C          4.94261        2.02376       -0.71659
F          8.17552        0.44742       -0.29132
C          6.01501       -0.46266       -0.05239
F          4.44953        3.21893       -1.03573
C          4.08615        0.96332       -0.43534
F          6.52995       -1.64611        0.26385
C          4.63199       -0.27396       -0.10483
F          3.83633       -1.30599        0.16880
H          3.00474        1.09976       -0.47321
