27
PENTAMETHYLBENZENE.gamout	Energy:    -428.2182047
C          1.41633        4.88925        2.86826
C          2.44278        3.88460        2.38299
C          3.72906        4.31450        1.98347
C          2.12515        2.51055        2.32745
C          4.09639        5.78412        2.01772
C          4.70306        3.38576        1.55059
C          0.76635        1.97699        2.73124
C          3.09999        1.61272        1.88256
C          6.07602        3.87914        1.14862
C          4.38206        2.01490        1.49565
C          5.37395        0.97025        1.03090
H          1.80292        5.49972        3.70114
H          0.50159        4.40043        3.22413
H          1.11797        5.59138        2.06997
H          4.81192        6.00384        2.83105
H          3.22546        6.43264        2.16766
H          4.58224        6.10083        1.08107
H          0.53461        2.18588        3.78982
H          0.72217        0.88612        2.59612
H         -0.04892        2.41587        2.13125
H          2.84977        0.54892        1.83812
H          6.51781        4.53112        1.92009
H          6.03923        4.47558        0.21893
H          6.77848        3.05447        0.97659
H          5.72523        1.15905        0.00219
H          4.91868       -0.03121        1.04408
H          6.26965        0.93281        1.67434
