8
PENTACHLOROETHANE.gamout	Energy:   -2376.6887160
Cl        -1.71409        1.46661       -0.25017
C         -0.78172       -0.00004       -0.65285
C          0.61465       -0.00037        0.02953
Cl         0.48332        0.00053        1.80647
Cl         1.51103       -1.45428       -0.52125
Cl         1.50920        1.45374       -0.52261
Cl        -1.71533       -1.46647       -0.25239
H         -0.61462        0.00030       -1.73645
