32
PERFLUORODECANE.gamout	Energy:   -2574.5811442
F          1.07411       20.80812        0.11430
C          1.21275       20.15005       -1.03289
F          0.01675       20.03686       -1.60864
F          2.01416       20.83596       -1.84511
C          1.76940       18.71995       -0.77460
F          0.95926       18.13682        0.11910
F          1.69321       18.04304       -1.93862
C          3.24418       18.65369       -0.23330
F          3.58412       19.87992        0.21660
F          3.30113       17.80518        0.80022
C          4.34220       18.25853       -1.27783
F          4.24378       19.10173       -2.31435
F          5.52054       18.47406       -0.65886
C          4.32421       16.76997       -1.81408
F          3.38472       16.08067       -1.13482
F          3.99453       16.77229       -3.11108
C          5.64784       15.94409       -1.65848
F          5.98244       15.91228       -0.36373
F          5.34305       14.68895       -2.04523
C          6.87947       16.44792       -2.50849
F          6.58859       17.68871       -2.95940
F          7.96168       16.51510       -1.71779
C          7.25648       15.61366       -3.77741
F          6.14329       15.36019       -4.47732
F          8.05088       16.40348       -4.52776
C          8.02716       14.26693       -3.52929
F          7.81190       13.84409       -2.27127
F          7.55430       13.34834       -4.38364
C          9.56752       14.32249       -3.73847
F         10.11210       15.30167       -3.01972
F         10.08618       13.16110       -3.34156
F          9.85693       14.50044       -5.02337
