15
PERFLUOROTOLUENE.gamout	Energy:   -1064.1910745
C          6.32619        1.82156       -0.65983
F          7.12258        2.84822       -0.93353
C          6.87607        0.57465       -0.32432
C          4.94868        2.02685       -0.71670
C          4.08314        0.96623       -0.43612
F          4.45912        3.21762       -1.03524
C          4.60561       -0.28270       -0.10221
F          2.77366        1.14729       -0.48722
F          3.78648       -1.29202        0.16441
C          5.98996       -0.47578       -0.04815
F          6.41014       -1.69168        0.27449
C          8.38834        0.44033       -0.28936
F          8.78315       -0.78273        0.07274
F          8.92174        1.31374        0.57914
F          8.91850        0.69721       -1.49596
