20
PERFLUORO-2-METHYLPENTANE.gamout	Energy:   -1624.5544092
C         51.85066       65.24539       -0.42518
C         50.57680       64.35742       -0.15646
C         49.21827       65.11871       -0.29532
C         50.57761       63.08168       -1.07903
F         50.65681       63.91150        1.12460
C         51.93742       66.63047        0.29719
F         52.92124       64.54096       -0.00790
F         51.94866       65.45688       -1.74965
F         48.19792       64.26015       -0.27078
F         49.06688       65.96018        0.72584
F         49.17380       65.80427       -1.43591
F         49.76843       62.16578       -0.55391
F         51.79359       62.54640       -1.17491
F         50.15143       63.38654       -2.30513
C         53.34965       67.29865        0.26131
F         51.08485       67.48373       -0.29336
F         51.60644       66.48052        1.58941
F         54.19518       66.65470        1.05754
F         53.22916       68.55401        0.68955
F         53.83349       67.31178       -0.97922
