20
PERFLUOROHEXANE.gamout	Energy:   -1624.5478533
F          1.23154        0.61462        1.09691
F          1.23144        0.61446       -1.09655
F         -1.23179       -0.61481       -1.09691
F         -1.23183       -0.61470        1.09654
F          0.98581       -2.12251       -1.09655
F          0.98610       -2.12233        1.09648
F         -0.98568        2.12144        1.09658
F         -0.98588        2.12131       -1.09638
F          3.32623       -2.80730        0.00004
F          3.46020       -0.93890        1.08504
F          3.45995       -0.93903       -1.08510
F         -3.32551        2.80811       -0.00006
F         -3.46013        0.93979       -1.08511
F         -3.45998        0.93988        1.08504
C          0.78606       -0.02516        0.00011
C         -0.78656        0.02495       -0.00008
C          1.40154       -1.46607       -0.00003
C         -1.40179        1.46561        0.00006
C          2.96260       -1.52622        0.00000
C         -2.96257        1.52687       -0.00004
