50
PERFLUOROHEXADECANE.gamout	Energy:   -3999.6489809
F          1.23853        0.59771        1.09715
F          1.23820        0.59771       -1.09684
F         -1.23966       -0.60028       -1.09715
F         -1.23951       -0.60034        1.09681
F          0.94397       -2.14256       -1.09704
F          0.94364       -2.14238        1.09695
F         -0.94465        2.13908        1.09712
F         -0.94423        2.13899       -1.09684
F          3.42109       -0.94803       -1.09706
F          3.42094       -0.94826        1.09668
F         -3.42226        0.94669        1.09698
F         -3.42201        0.94701       -1.09673
F          3.12382       -3.68621        1.09684
F          3.12353       -3.68606       -1.09702
F         -3.12360        3.68472       -1.09680
F         -3.12340        3.68447        1.09709
F          5.60578       -2.50357        1.09684
F          5.60551       -2.50382       -1.09677
F         -5.60652        2.50458       -1.09693
F         -5.60632        2.50473        1.09669
F          5.30497       -5.24064       -1.09678
F          5.30473       -5.24028        1.09697
F         -5.30396        5.24131        1.09683
F         -5.30364        5.24103       -1.09694
F          7.79025       -4.07837       -1.09671
F          7.79025       -4.07850        1.09631
F         -7.79008        4.08127        1.09663
F         -7.79002        4.08148       -1.09637
F          9.23565       -6.04144        0.00006
F          7.52596       -6.80708        1.08534
F          7.52596       -6.80711       -1.08504
F         -9.23415        6.04524       -0.00009
F         -7.52399        6.80984       -1.08529
F         -7.52396        6.80966        1.08508
C          0.79130       -0.03751        0.00010
C         -0.79265        0.03487       -0.00006
C          1.39137       -1.50808       -0.00005
C         -1.39250        1.50531        0.00010
C          2.97433       -1.58277       -0.00018
C         -2.97532        1.58123        0.00016
C          3.57282       -3.05333       -0.00008
C         -3.57312        3.05224        0.00009
C          5.15493       -3.13558        0.00004
C         -5.15524        3.13611       -0.00008
C          5.74942       -4.60231        0.00004
C         -5.74884        4.60343       -0.00003
C          7.31576       -4.69167       -0.00011
C         -7.31510        4.69419        0.00008
C          7.90785       -6.13972        0.00007
C         -7.90626        6.14262       -0.00008
