15
PERFLUOROCYCLOPENTANE.gamout	Energy:   -1187.5458683
C          3.30844       -1.28015        0.62524
F          2.07384       -1.72770        0.38205
F          4.05352       -1.37850       -0.49014
C          3.31579        0.20188        1.10580
C          4.00839       -2.06302        1.76416
F          3.39390        1.04744        0.07310
F          2.19522        0.44378        1.80065
C          4.56520        0.34403        2.05116
F          3.12573       -2.24204        2.76556
F          4.48718       -3.24325        1.35913
C          5.12591       -1.10600        2.26237
F          4.20078        0.86541        3.22807
F          5.48942        1.12744        1.48421
F          6.21699       -1.27570        1.50209
F          5.43232       -1.32911        3.54425
