17
PERFLUOROPENTANE.gamout	Energy:   -1387.0374872
C         43.69104       18.52472       -0.71047
C         43.48184       20.06276       -0.52915
C         44.74914       20.83970       -0.04119
F         43.10000       20.57810       -1.71211
F         42.49873       20.25164        0.37043
C         42.43633       17.73442       -1.19917
F         44.66355       18.32144       -1.61533
F         44.06150       17.99336        0.46649
C         44.55344       22.37647        0.14309
F         45.73678       20.66983       -0.93560
F         45.13392       20.34276        1.14603
F         42.77102       16.44901       -1.30675
F         41.43559       17.85063       -0.32927
F         42.03670       18.17550       -2.38887
F         44.21169       22.94906       -1.00853
F         43.61398       22.62463        1.05168
F         45.70603       22.89837        0.55956
