18
PERFLUOROCYCLOHEXANE.gamout	Energy:   -1425.0651539
C         -3.85560        1.02150        1.14015
F         -3.60089        0.42119        2.31266
F         -2.79582        1.77049        0.78769
C         -5.08245        1.95990        1.31214
C         -4.06503       -0.06806        0.05267
C         -5.60618        2.53338       -0.03473
F         -6.07641        1.26353        1.89190
F         -4.73616        2.98146        2.11070
F         -6.77309        3.15687        0.18648
C         -5.81824        1.44424       -1.12256
F         -4.70820        3.42182       -0.49326
F         -6.88012        0.69638       -0.77086
C         -4.59446        0.50264       -1.29287
F         -6.06668        2.04807       -2.29579
F         -4.94404       -0.52066       -2.08762
F         -3.60170        1.19627       -1.87668
F         -4.95648       -0.96108        0.51321
F         -2.89534       -0.68520       -0.17204
