23
PERFLUOROHEPTANE.gamout	Energy:   -1862.0585743
C          1.10282       -0.16749        0.30827
C         -0.06919       -0.51590       -0.66988
C         -1.49976       -0.57007        0.00544
F         -0.09502        0.38350       -1.67146
F          0.18248       -1.72699       -1.18541
C          2.41863        0.23897       -0.42886
F          0.74750        0.85614        1.10077
F          1.34225       -1.25023        1.06802
C         -2.32184        0.75049       -0.09782
F         -1.35738       -0.90888        1.30160
F         -2.20148       -1.53115       -0.61148
C          3.69639        0.22078        0.46243
F          2.63813       -0.60099       -1.45569
F          2.26886        1.48602       -0.89887
C         -3.56649        0.81064        0.83724
F         -2.75412        0.87375       -1.36307
F         -1.54748        1.80376        0.21484
F          4.69144        0.80351       -0.20397
F          3.48565        0.88955        1.59504
F          4.04433       -1.02935        0.74767
F         -4.30621        1.86448        0.49687
F         -3.18469        0.94333        2.10456
F         -4.30237       -0.29291        0.70892
