20
PERFLUORO-2,3-DIMETHYLBUTANE.gamout	Energy:   -1624.5537028
C         18.42770       56.51820        0.09505
F         17.37544       55.71249       -0.06506
F         17.99570       57.77644        0.09099
F         18.97635       56.28257        1.28194
C         19.46683       56.33784       -1.08503
C         18.71704       56.39128       -2.45854
F         17.92774       57.46461       -2.49325
F         17.96758       55.31058       -2.65939
F         19.59248       56.50179       -3.45741
F         20.22087       57.47414       -1.03672
C         20.49998       55.14700       -0.87735
F         21.17241       55.46032        0.26784
C         19.89700       53.72273       -0.62768
C         21.63292       55.06822       -1.97791
F         20.88106       52.86806       -0.35095
F         19.22962       53.27344       -1.68656
F         19.07443       53.74442        0.42088
F         22.06986       56.27571       -2.31854
F         22.66331       54.38751       -1.48197
F         21.20222       54.43940       -3.07359
