17
PFBS-1.gamout	Energy:   -1673.2114586
C         -3.76519        0.31948       -0.02970
C         -2.38118        1.02282       -0.13713
C         -1.14498        0.07452       -0.01037
C          0.21068        0.79982        0.19762
F         -4.72794        1.21281       -0.30949
F         -3.86926       -0.68469       -0.90047
F         -3.98557       -0.14713        1.19817
F         -2.36178        1.96250        0.83096
F         -2.36167        1.63495       -1.33623
F         -1.12205       -0.65973       -1.13877
F         -1.38754       -0.73990        1.03793
F          0.18475        1.32445        1.44696
F          0.25067        1.83481       -0.68113
S          1.78142       -0.28235       -0.01845
O          1.82637       -0.46693       -1.48294
O          2.82253        0.59869        0.55321
O          1.44324       -1.48002        0.78002
