20
PHENYLETHYLAMINE.gamout	Energy:    -365.7187155
N          3.84237       -0.03635       -0.22598
C          1.54615        0.07009        0.66501
C          0.06828        0.03061        0.35585
C          2.42974       -0.02822       -0.58920
C         -0.66133        1.20797        0.13399
C         -0.60263       -1.19594        0.23441
C         -2.01649        1.16317       -0.20225
C         -1.95686       -1.24679       -0.10152
C         -2.67008       -0.06540       -0.32251
H          1.79155        1.00638        1.19670
H          1.82179       -0.75606        1.34011
H          2.13734        0.78393       -1.29108
H          2.20027       -0.97358       -1.11036
H         -0.16014        2.17560        0.22867
H         -0.05445       -2.12586        0.41143
H         -2.56540        2.09357       -0.36887
H         -2.45851       -2.21391       -0.18708
H         -3.73064       -0.10293       -0.58332
H          4.12668        0.88495        0.11136
H          4.42062       -0.22702       -1.04435
