24
PHENANTHRENE.gamout	Energy:    -538.8096813
C          4.26848        4.21172        6.03328
C          3.40374        3.36160        5.36553
C          3.43679        3.22660        3.95577
C          5.21344        4.97178        5.31554
C          5.27188        4.86276        3.93874
C          4.39694        3.99919        3.23531
C          4.46370        3.89119        1.80495
C          2.53942        2.34091        3.22124
C          2.64392        2.26751        1.80010
C          1.55737        1.54056        3.85378
C          3.62644        3.06362        1.11966
C          1.77848        1.41145        1.07689
C          0.82997        0.64230        1.72438
C          0.72100        0.71021        3.12746
H          4.21659        4.29255        7.12147
H          2.68333        2.78637        5.94761
H          5.89356        5.64130        5.84685
H          5.99965        5.44592        3.36933
H          5.20618        4.49115        1.27335
H          1.44983        1.57222        4.93830
H          3.68840        2.99148        0.03074
H          1.87355        1.36847       -0.01116
H          0.16855       -0.01384        1.15469
H         -0.02595        0.10599        3.64692
