14
PHENYLACETYLENE.gamout	Energy:    -307.9767480
C         -0.23899        0.39178       -0.02220
C         -1.35971        1.24592        0.00467
C         -0.44481       -1.00115       -0.07694
C         -2.64887        0.71710       -0.02304
C         -1.73726       -1.52175       -0.10435
C         -2.84275       -0.66639       -0.07768
C          1.08738        0.92954        0.00514
C          2.21170        1.38757        0.02840
H         -1.20384        2.32545        0.04701
H          0.42070       -1.66593       -0.09781
H         -3.50969        1.38964       -0.00196
H         -1.88364       -2.60365       -0.14700
H         -3.85451       -1.07819       -0.09945
H          3.20563        1.79302        0.04898
