26
PHENYL_SALICYLATE.gamout	Energy:    -726.1419275
C          6.47909        1.65358       -0.65800
C          6.67721        0.25041       -0.71790
C          5.24739        2.13628       -0.17772
C          7.54620        2.59896       -1.08784
C          5.64758       -0.60747       -0.29689
O          7.83994       -0.24550       -1.18212
C          4.23481        1.27873        0.24043
C          4.44116       -0.10283        0.17799
O          7.07069        3.89048       -1.07762
O          8.67130        2.32540       -1.40769
C          9.40826        7.18066       -2.11825
C          8.23653        6.88582       -2.81835
C          9.81861        6.35243       -1.07013
C          7.48028        5.76256       -2.47718
C          7.89899        4.94392       -1.42843
C          9.06681        5.23055       -0.71769
H          5.10209        3.21512       -0.13785
H          5.80889       -1.68855       -0.35052
H          7.79994       -1.21127       -1.16211
H          3.29083        1.68213        0.61061
H          3.65895       -0.79431        0.50040
H         10.00148        8.05708       -2.38734
H          7.90956        7.52956       -3.63842
H         10.73352        6.58335       -0.51876
H          6.56186        5.51139       -3.01025
H          9.38164        4.58046        0.09864
