26
PHENACETIN.gamout	Energy:    -593.3247148
O          3.16247        0.55703        0.40973
O         -3.37509        0.91317        0.39972
N         -2.19201       -1.01209        0.01237
C         -0.84973       -0.59031        0.11844
C          1.88314        0.11371        0.30130
C         -0.47235        0.73767        0.39892
C          0.15772       -1.54600       -0.06558
C          0.87446        1.07234        0.48600
C          1.51221       -1.20906        0.02292
C          4.23355       -0.35198        0.23908
C          5.52662        0.42001        0.41020
C         -3.34766       -0.27774        0.15041
C         -4.61527       -1.10090       -0.03788
H         -1.24583        1.48805        0.54397
H         -0.11418       -2.58360       -0.28391
H          1.17732        2.09907        0.70238
H          2.26030       -1.98733       -0.12778
H          4.16102       -1.16905        0.98290
H          4.18340       -0.81519       -0.76567
H         -2.31260       -1.99616       -0.19461
H          5.59587        1.22611       -0.33651
H          5.57748        0.87284        1.41246
H          6.39334       -0.24761        0.28435
H         -4.65038       -1.55187       -1.04357
H         -5.47921       -0.43875        0.09068
H         -4.67081       -1.91706        0.70161
