19
PHENETOLE.gamout	Energy:    -385.5679653
C          1.14104        4.39109        1.49759
O          1.57352        3.19713        0.86110
C          2.86376        2.77739        0.95061
C          0.85456        4.20547        2.98339
C          3.89828        3.47334        1.59573
C          3.14746        1.55270        0.32216
C          5.19336        2.94229        1.60133
C          4.43963        1.03556        0.33750
C          5.47498        1.72711        0.97792
H          0.21594        4.66912        0.96940
H          1.86725        5.20652        1.32778
H          0.46639        5.14318        3.41329
H          0.09926        3.41832        3.13430
H          1.75804        3.92195        3.54498
H          3.71041        4.42279        2.09707
H          2.32812        1.02928       -0.17426
H          5.99002        3.49365        2.10753
H          4.64198        0.08192       -0.15696
H          6.48818        1.32083        0.99077
