16
PHENYL_ACETONITRILE.gamout	Energy:    -363.3103199
C          6.39916        1.83685       -0.67174
C          6.91210        0.58997       -0.31163
C          5.01693        2.03755       -0.75197
C          4.13284        0.99105       -0.47100
C          2.61824        1.15252       -0.54176
C          4.65475       -0.26024       -0.10955
C          6.03334       -0.46099       -0.03007
C          2.14407        2.48008       -0.94146
N          1.76726        3.52728       -1.26411
H          7.07561        2.66561       -0.89351
H          7.99204        0.43594       -0.24921
H          4.62613        3.01748       -1.03483
H          2.19487        0.41907       -1.25049
H          2.16990        0.91797        0.44024
H          3.97408       -1.08709        0.11268
H          6.42191       -1.44205        0.25269
