16
PHENYLHYDRAZINE.gamout	Energy:    -342.4635623
N          6.83642        4.15235       -1.38485
N          7.22212        2.93547       -0.83263
C          6.34317        1.88497       -0.60687
C          6.85155        0.59707       -0.33178
C          4.94656        2.06548       -0.61285
C          5.99121       -0.46424       -0.06811
C          4.60294       -0.28043       -0.07302
C          4.09488        0.98993       -0.34797
H          6.34244        4.71621       -0.69160
H          6.20863        4.02000       -2.18414
H          8.18394        2.68703       -1.03457
H          7.93421        0.44054       -0.32664
H          4.52816        3.05137       -0.81931
H          6.41058       -1.45192        0.14146
H          3.93119       -1.11628        0.13263
H          3.01383        1.15449       -0.35715
