18
PHENYL_ACETATE.gamout	Energy:    -459.5268836
C          2.28627        0.78707        0.49889
O          2.49018        1.96633        1.14407
C          3.69309        2.65213        1.22687
C          0.83727        0.39102        0.62783
O          3.13278        0.16145       -0.08252
C          3.56339        3.96416        1.69600
C          4.95239        2.12547        0.91650
C          4.69576        4.75955        1.85851
C          6.07827        2.93864        1.08625
C          5.96103        4.24818        1.55386
H          0.57176        0.28857        1.69155
H          0.19321        1.17623        0.20258
H          0.67054       -0.55815        0.10505
H          2.56377        4.33523        1.92858
H          5.04660        1.11135        0.53933
H          4.58839        5.78333        2.22510
H          7.06398        2.53268        0.84494
H          6.85094        4.86853        1.67934
