29
PHENOBARBITAL.gamout	Energy:    -798.7090155
O          0.61768       -0.77956        2.35927
O          0.60706       -0.64606       -2.40304
O          3.31914        2.03738        0.04874
N          1.87527        0.67988        1.18055
N          1.86899        0.74604       -1.15035
C          0.20866       -0.73193       -0.02155
C          0.18169       -2.28042       -0.06514
C         -1.19929       -0.08431        0.00032
C          0.90381       -0.30745        1.28389
C          0.89778       -0.23458       -1.30432
C          1.56365       -2.93788       -0.08679
C         -1.31591        1.31560        0.04034
C         -2.37418       -0.84621       -0.02186
C          2.42722        1.22299        0.02812
C         -2.56518        1.93480        0.05582
C         -3.62690       -0.22591       -0.00607
C         -3.72962        1.16450        0.03206
H         -0.38004       -2.57473       -0.96249
H         -0.37731       -2.62418        0.81642
H          2.14695       -2.64401       -0.97392
H          2.15202       -2.69527        0.81245
H          1.45673       -4.03262       -0.11762
H          2.30014        0.98566        2.05173
H          2.28894        1.10059       -2.00525
H         -0.42144        1.94180        0.05931
H         -2.32977       -1.93377       -0.05226
H         -2.62400        3.02462        0.08634
H         -4.52824       -0.84258       -0.02431
H         -4.71031        1.64498        0.04351
