13
PHENOL.gamout	Energy:    -307.0650942
O          0.37297        2.38977        0.07632
C          1.72670        2.27070        0.06090
C          2.48524        3.45006        0.07468
C          2.37506        1.02846        0.03391
C          3.87732        3.37933        0.06212
C          3.77110        0.96981        0.02135
C          4.53023        2.14173        0.03548
H         -0.02658        1.51035        0.05963
H          1.96448        4.40927        0.09504
H          1.78469        0.10650        0.02277
H          4.46084        4.30355        0.07327
H          4.26574       -0.00456        0.00001
H          5.62095        2.09293        0.02692
