15
PHLOROGLUCINOL.gamout	Energy:    -457.3359174
O         -3.25950       -0.85438       -0.56532
O          1.35182       -1.80140        0.16369
O         -0.31670        2.60288        0.87467
C         -2.02750       -0.41409       -0.20395
C          0.30031       -0.94344        0.15173
C         -0.49718        1.30375        0.52567
C         -0.98566       -1.35173       -0.21298
C         -1.79366        0.91402        0.16333
C          0.55501        0.38389        0.52306
H         -1.19694       -2.38275       -0.50425
H         -2.59652        1.65409        0.17430
H          1.56954        0.67486        0.80323
H         -3.88558       -0.11997       -0.51908
H          1.05020       -2.67777       -0.10918
H          0.61174        2.74517        1.10102
