8
PHOSPHORIC_ACID.gamout	Energy:    -643.6093484
P          0.63954        2.54053        0.48015
O          0.09594        3.19302       -0.71316
O          0.67950        0.91753        0.36176
O         -0.21181        2.85562        1.83052
O          2.16621        2.99247        0.81987
H          1.02812        0.42565        1.11751
H          0.09545        2.45423        2.65461
H          2.58134        2.59531        1.59731
