6
PHOSPHONATE-1.gamout	Energy:    -567.8998562
P          0.13813       -0.13914        0.44388
O          1.13189        1.23288        0.33614
O          0.95417       -1.37810        0.18791
O         -1.11674        0.23354       -0.32163
H         -0.13294       -0.06707        1.86569
H          0.60729        1.79378       -0.25418
