7
PHOSPHOROUS_ACID.gamout	Energy:    -568.4550374
O          0.29824        2.17994        0.30126
P          1.69193        1.29895        0.18517
O          1.10493       -0.14766       -0.43893
O          2.32479        1.77729       -1.26266
H         -0.23871        2.17222       -0.50970
H          0.83576       -0.76012        0.26031
H          2.01171        1.21584       -1.99194
