17
PHTHALATE_MONOANION-1.gamout	Energy:    -608.1047966
O          2.35515        1.12207        0.32783
O          0.54311       -2.79522        0.25814
O          1.15188        2.92386       -0.16317
O          2.10949       -1.23715        0.48575
C         -0.05273        0.87610        0.03123
C         -0.20175       -0.53484        0.13350
C         -1.21317        1.65929       -0.12520
C         -1.50223       -1.07338        0.07469
C         -2.48843        1.10669       -0.17488
C         -2.63482       -0.27983       -0.07277
C          1.24849        1.71883        0.05919
C          0.89349       -1.61833        0.29828
H         -1.05050        2.73467       -0.21120
H         -1.57029       -2.15981        0.14672
H         -3.36370        1.75293       -0.29618
H         -3.62701       -0.74052       -0.11218
H          2.24810       -0.06696        0.43235
