15
PHTHALIC_ANHYDRIDE.gamout	Energy:    -532.2816014
C         -3.38222        0.71242        0.50845
C         -2.49754       -0.08916       -0.20575
C         -2.89682        1.32243        1.67126
C         -1.18336       -0.28034        0.21400
C         -2.68795       -0.86589       -1.45923
C         -1.57173        1.12955        2.09402
C         -0.69017        0.32047        1.36734
C         -0.52281       -1.18090       -0.76692
O         -1.47434       -1.49056       -1.73517
O         -3.64569       -0.99287       -2.15910
O          0.59062       -1.60751       -0.80438
H         -4.40982        0.85508        0.17002
H         -3.55775        1.96030        2.26257
H         -1.22620        1.62089        3.00630
H          0.34161        0.16277        1.68556
