17
PHTHALAN.gamout	Energy:    -384.3607381
O          2.46928       -0.00009        0.08265
C          0.24444        0.69788        0.03668
C          0.24449       -0.69812        0.03668
C          1.67211        1.17742        0.06647
C          1.67213       -1.17762        0.06648
C         -0.95335        1.41026        0.01198
C         -0.95333       -1.41025        0.01198
C         -2.15902        0.70024       -0.01289
C         -2.15892       -0.70001       -0.01289
H          1.92487        1.79396       -0.81956
H          1.88830        1.79322        0.96261
H          1.88832       -1.79341        0.96263
H          1.92494       -1.79421       -0.81952
H         -0.95681        2.50333        0.01196
H         -0.95706       -2.50331        0.01195
H         -3.10772        1.24182       -0.03237
H         -3.10762       -1.24159       -0.03243
