18
PHTHALIC_ACID.gamout	Energy:    -608.6147225
C         -1.09972       -0.21575        0.27227
C         -0.41926        0.99938        0.31227
C         -0.43152       -1.35673       -0.15926
C          0.90456       -1.26122       -0.54279
C          1.61684       -0.04760       -0.51313
C          0.93031        1.12529       -0.06965
C          3.05937       -0.13278       -0.96610
C          1.50513        2.52156        0.03729
O          0.57341        3.40205        0.49892
O          2.61523        2.90003       -0.22464
O          3.87838        0.74361       -1.03566
O          3.38659       -1.40610       -1.32405
H         -2.14718       -0.26239        0.57872
H         -0.94450        1.88959        0.65020
H         -0.93936       -2.32262       -0.20117
H          1.42433       -2.15489       -0.87971
H          1.03207        4.25797        0.53205
H          4.31812       -1.35820       -1.59606
