19
PICRIC_ACID.gamout	Energy:    -919.8441901
C          6.33566        1.86909       -0.64191
C          6.87274        0.61568       -0.35505
C          4.92725        2.10873       -0.70440
N          7.27921        2.96270       -0.88025
C          6.00792       -0.43759       -0.10588
C          4.09894        0.97963       -0.44759
O          4.41102        3.28836       -0.94672
C          4.62347       -0.26414       -0.13780
N          6.56266       -1.76897        0.20459
N          2.62360        1.08776       -0.50727
O          6.80796        4.08830       -1.10629
O          8.46529        2.72777       -0.84685
O          5.76533       -2.66712        0.41033
O          7.77670       -1.87216        0.23147
O          2.14851        1.90074       -1.27488
O          1.99616        0.32164        0.20518
H          7.95166        0.47479       -0.32281
H          5.17489        3.91608       -1.06602
H          3.95546       -1.09636        0.07983
