19
PINACOLONE.gamout	Energy:    -310.6614886
O         -1.08784        0.90348       -3.00828
C         -1.04391        2.96528       -1.79565
C         -2.31331        3.48204       -2.49946
C         -1.00680        3.48031       -0.35076
C          0.20529        3.45363       -2.55392
C         -1.06474        1.42055       -1.91209
C         -1.05519        0.56637       -0.65881
H         -2.31413        4.58353       -2.53072
H         -3.22475        3.15920       -1.96945
H         -2.36421        3.09915       -3.52866
H         -0.10689        3.14531        0.18840
H         -1.88869        3.16327        0.22764
H         -0.99536        4.58218       -0.34939
H          0.23063        4.55476       -2.58309
H          0.20219        3.07255       -3.58498
H          1.13100        3.10747       -2.06519
H         -1.92721        0.78715       -0.02163
H         -1.07140       -0.49141       -0.95176
H         -0.15965        0.76782       -0.04858
