17
PIPERIDINE.gamout	Energy:    -251.5475175
C          3.14377        3.35374        1.81706
C          3.91585        2.15436        1.25313
C          1.70589        3.37942        1.28218
C          3.13661        0.84929        1.48658
C          1.01682        2.02522        1.51571
N          1.76141        0.88168        0.99707
H          3.11669        3.27841        2.92067
H          3.66275        4.29794        1.58416
H          4.07024        2.29183        0.16592
H          4.91963        2.08593        1.70651
H          1.12775        4.19026        1.75748
H          1.71760        3.59706        0.19703
H          3.65769       -0.00362        1.02255
H          3.10523        0.63862        2.57276
H          0.88090        1.87556        2.60392
H          0.00581        2.02020        1.07646
H          1.76529        0.91479       -0.02349
