16
PIPERAZINE.gamout	Energy:    -267.5467915
C         -2.15768       -0.17432       -0.08663
C         -1.58210       -1.56208       -0.34097
C          0.07448        0.21712        0.88670
C          0.52478       -0.28924       -0.49161
N         -0.24881       -1.45271       -0.93855
H         -2.25152       -2.11617       -1.02209
H         -1.58558       -2.11314        0.62458
H          0.27456       -2.31095       -0.79059
H          1.59552       -0.55077       -0.47240
H          0.42149        0.53721       -1.22214
N         -1.36052        0.52293        0.92531
H          0.64612        1.11658        1.16827
H          0.31894       -0.55454        1.64329
H         -1.51735        1.52560        0.86961
H         -3.19992       -0.27162        0.26365
H         -2.19768        0.36095       -1.06010
