22
POHPY+1.gamout	Energy:    -441.2167541
O         -3.84264       -0.47741        0.72437
C         -2.86173       -1.37870        0.29493
C         -2.52437       -1.19311       -1.19208
H         -1.96681       -1.17228        0.90939
H         -3.13885       -2.43657        0.48816
C         -1.38524       -2.06581       -1.71945
H         -2.31467       -0.12507       -1.37427
H         -3.40903       -1.43499       -1.80656
N         -0.07580       -1.79050       -1.05569
H         -1.23706       -1.90968       -2.79764
H         -1.59318       -3.13389       -1.56623
C          0.46983       -2.70633       -0.22432
C          1.66697       -2.45238        0.42652
C          2.31242       -1.23253        0.21541
C          0.54032       -0.60625       -1.27802
C          1.73797       -0.30081       -0.65373
H         -0.07661       -3.64148       -0.10016
H          2.08282       -3.21086        1.09103
H          3.25472       -1.01087        0.72085
H          0.04472        0.08205       -1.96333
H          2.21096        0.66173       -0.85259
H         -4.71226       -0.77098        0.42020
