59
POLY_POMS3.gamout	Energy:   -1046.7093679
C          4.03685        0.04264        0.29091
C          4.76552       -1.12503       -0.02623
C          5.92406       -1.42203        0.70556
C          6.36844       -0.59658        1.73912
C          5.65017        0.55809        2.05126
C          4.49962        0.86767        1.32574
C          2.75467        0.40512       -0.42783
C          1.50150       -0.24609        0.19607
C          0.17605        0.07681       -0.54330
C         -0.98182       -0.85944       -0.10482
C         -2.22782       -0.88384       -1.02945
C         -1.93132       -1.53341       -2.39235
C         -3.40177       -1.54606       -0.31202
C         -4.45139       -0.78291        0.25071
C         -5.48811       -1.44472        0.92657
C         -5.50861       -2.83206        1.06287
C         -4.47174       -3.58597        0.51465
C         -3.43690       -2.94098       -0.16291
C         -0.21428        1.56005       -0.54597
C         -0.28414        2.19085       -1.80327
C         -0.65976        3.52306       -1.96130
C         -0.97764        4.27769       -0.83291
C         -0.90973        3.67835        0.42098
C         -0.53421        2.33577        0.59675
C          4.33212       -2.04373       -1.14294
H          6.48801       -2.32424        0.45427
H          7.27297       -0.85379        2.29489
H          5.98569        1.21885        2.85412
H          3.94200        1.77816        1.56271
H          2.63299        1.50015       -0.41892
H          2.81672        0.11471       -1.49010
H          1.63289       -1.34073        0.19653
H          1.44507        0.04652        1.25709
H          0.37894       -0.16464       -1.59959
H         -0.58877       -1.88877       -0.02826
H         -1.30983       -0.59279        0.91099
H         -2.50551        0.16070       -1.23088
H         -1.61414       -2.58406       -2.29117
H         -2.82120       -1.51039       -3.03919
H         -1.12727       -0.99931       -2.92093
C         -4.48968        0.72460        0.15872
H         -6.29897       -0.84954        1.35461
H         -6.32962       -3.31799        1.59462
H         -4.46676       -4.67461        0.61066
H         -2.63522       -3.54757       -0.59044
H         -0.03270        1.60899       -2.69414
H         -0.70162        3.96463       -2.95941
H         -1.27665        5.32421       -0.92717
H         -1.15538        4.26903        1.30834
C         -0.50805        1.84689        2.03206
H         -1.45950        2.08173        2.53592
H          0.28808        2.35601        2.60213
H         -0.34222        0.76992        2.12968
H          4.35923       -1.53671       -2.12305
H          3.30162       -2.40827       -1.00156
H          4.98798       -2.92349       -1.20755
H         -4.48440        1.08384       -0.88403
H         -3.62297        1.19335        0.65362
H         -5.39789        1.11967        0.63749
