92
POLY_PCL5.gamout	Energy:   -1924.3159674
O          1.17025        0.29756        7.92711
C          0.74914        0.89187        6.79594
C          0.95022       -0.00980        5.59602
C          0.51347        0.63079        4.27944
C          0.72189       -0.27669        3.06343
C          0.29021        0.36509        1.74009
C          0.50127       -0.55676        0.55179
O          0.06109        0.12681       -0.62883
C          0.15013       -0.55385       -1.78730
C         -0.37053        0.26974       -2.94641
C         -0.32086       -0.46709       -4.28387
C         -0.85778        0.35375       -5.45982
C         -0.81863       -0.39127       -6.79876
C         -1.35825        0.42578       -7.97367
O          0.28247        2.00507        6.76517
H          2.01721       -0.29489        5.57440
H          0.40774       -0.95250        5.78866
H         -0.54790        0.92202        4.35767
H          1.06466        1.57684        4.14253
H          1.78781       -0.56590        2.99862
H          0.16469       -1.22141        3.20806
H         -0.77680        0.64590        1.78562
H          0.84992        1.30186        1.57152
H          1.56105       -0.84113        0.43455
H         -0.06844       -1.49584        0.65743
O          0.58256       -1.67863       -1.86265
H         -1.40038        0.57737       -2.69107
H          0.20740        1.21068       -2.97646
H          0.71915       -0.77905       -4.48177
H         -0.89131       -1.40736       -4.19098
H         -1.89953        0.66275       -5.24831
H         -0.28191        1.29475       -5.55104
H          0.22103       -0.70130       -7.01194
H         -1.39529       -1.33026       -6.70750
H         -1.31336       -0.14591       -8.91409
H         -2.41042        0.71782       -7.81356
H         -0.77857        1.35314       -8.12115
C          1.05174        1.06490        9.13194
H         -0.00830        1.32536        9.29416
H          1.59548        2.01674        9.00633
C          1.61717        0.24371       10.27717
H          2.66283       -0.01994       10.03936
H          1.06465       -0.70983       10.34507
C          1.55516        0.99243       11.61431
H          0.50474        1.26143       11.83412
H          2.09326        1.95378       11.51307
C          2.13885        0.21129       12.79678
H          3.18991       -0.05470       12.59108
H          1.61072       -0.75054       12.91459
C          2.07372        0.98726       14.11182
H          1.03535        1.25389       14.37768
H          2.60158        1.95450       14.03210
C          2.67200        0.25100       15.29189
O          3.17988       -0.84362       15.25901
O          2.57591        0.99093       16.41118
C          3.14127        0.43646       17.60510
H          4.21493        0.24229       17.43857
H          2.66998       -0.53914       17.81402
C          2.91640        1.43364       18.72834
H          1.83217        1.61725       18.82909
H          3.36498        2.39858       18.43266
C          3.50365        0.96878       20.06600
H          4.58631        0.77942       19.93973
H          3.06169       -0.00694       20.34352
C          3.29435        1.96508       21.21224
H          2.21724        2.15787       21.35465
H          3.73164        2.94297       20.94607
C          3.89535        1.49371       22.53553
H          4.98008        1.30610       22.44420
H          3.46770        0.52613       22.85409
C          3.70157        2.46907       23.67706
O          3.12801        3.52922       23.61115
O          4.26254        1.99793       24.80478
C          4.16602        2.82436       25.97078
H          3.10239        3.01535       26.19449
H          4.62825        3.80394       25.75981
C          4.86524        2.09737       27.10596
H          5.90701        1.89295       26.80230
H          4.38526        1.11209       27.24104
C          4.84346        2.88070       28.42368
H          3.79489        3.08903       28.70829
H          5.31315        3.87020       28.26839
C          5.54973        2.15851       29.57713
H          6.59809        1.94821       29.30468
H          5.08752        1.17028       29.74281
C          5.52736        2.94386       30.88760
H          4.49546        3.15957       31.21764
H          6.00136        3.93552       30.77414
C          6.22942        2.23845       32.02641
O          6.78634        1.17078       31.96177
O          6.16823        2.95752       33.16683
H          6.63909        2.44354       33.84506
