51
POLY_PEO7.gamout	Energy:   -1076.6043561
O         -4.14323       -1.19054       -0.30774
C         -5.23330       -1.87348       -0.88798
H         -5.84340       -2.41625       -0.13770
H         -4.91365       -2.61750       -1.64584
C         -6.11260       -0.83733       -1.56224
H         -5.52226       -0.29009       -2.32602
H         -6.44049       -0.08943       -0.81059
O         -7.20919       -1.50052       -2.13577
C         -8.11610       -0.65654       -2.79261
H         -7.63346       -0.10740       -3.62756
H         -8.53209        0.10650       -2.10228
C         -9.24076       -1.51880       -3.33312
H         -9.72570       -2.06166       -2.49551
H         -8.82212       -2.28744       -4.01570
O        -10.14997       -0.68378       -3.99883
C        -11.26122       -1.35675       -4.52907
H        -11.85458       -1.85293       -3.73342
H        -10.95139       -2.14853       -5.24217
C        -12.12571       -0.34063       -5.24753
H        -11.53634        0.14341       -6.05338
H        -12.42714        0.46043       -4.54119
O        -13.24342       -1.01547       -5.76204
C        -14.11399       -0.20335       -6.50239
H        -13.60907        0.22686       -7.39220
H        -14.48771        0.64956       -5.89903
C        -15.28089       -1.05979       -6.95329
H        -15.80437       -1.47562       -6.06769
H        -14.90005       -1.92225       -7.53867
O        -16.12979       -0.25359       -7.72460
C        -17.27091       -0.91094       -8.20834
H        -17.92033       -1.26596       -7.38139
H        -16.99934       -1.80157       -8.81171
C        -18.03371        0.06903       -9.07641
H        -17.37586        0.41439       -9.90076
H        -18.30317        0.96606       -8.48130
O        -19.17310       -0.58368       -9.56860
C        -19.94981        0.19800      -10.43563
H        -19.37065        0.50932      -11.32956
H        -20.30398        1.12629       -9.94139
C        -21.14132       -0.62998      -10.87332
H        -21.73380       -0.92976       -9.98349
H        -20.78243       -1.56635      -11.35020
O        -21.89680        0.14655      -11.76019
C        -23.04474       -0.49655      -12.25688
H        -23.71969       -0.78345      -11.42177
H        -22.76639       -1.44131      -12.77192
C        -23.75221        0.44134      -13.21449
H        -23.09023        0.70824      -14.05317
H        -24.04362        1.37057      -12.70008
H        -24.65943       -0.03193      -13.62200
H         -3.57469       -1.83470        0.13057
