47
POLY_PMMA3.gamout	Energy:   -1037.2639744
C         -1.39406        0.08704       -0.99042
C         -0.28419       -0.58213       -0.17590
C          0.14525       -1.89347       -0.82425
C          0.88390        0.32931        0.27790
H         -2.23277       -0.60816       -1.13286
H         -1.76967        0.97838       -0.46529
H         -0.73070       -0.91904        0.77910
O         -0.32694       -2.37151       -1.82733
O          1.09675       -2.51918       -0.09863
H          0.45994        1.07899        0.96263
C          1.76733        1.09226       -0.76638
H          1.56098       -0.29426        0.87959
C          1.53643       -3.78086       -0.59889
H          1.92960       -3.68119       -1.62210
H          0.70657       -4.50388       -0.61913
H          2.32492       -4.12421        0.08273
C          0.90912        2.14175       -1.48571
C          2.34614        0.13435       -1.81350
C          2.89468        1.78264        0.07569
H          3.33662        0.99967        0.70813
H          2.40873        2.49677        0.75710
C          4.07602        2.54053       -0.59665
H          2.96033        0.66785       -2.54953
H          1.55149       -0.36383       -2.38287
H          2.96538       -0.62986       -1.32493
O          0.38867        3.04858       -0.63224
O          0.69263        2.17582       -2.67355
C         -0.44575        4.05013       -1.21255
H         -1.32040        3.59447       -1.70150
H          0.10530        4.63084       -1.96801
H         -0.76413        4.69992       -0.38769
H         -1.05300        0.38963       -1.98995
C          3.63082        3.60907       -1.59987
C          5.06440        1.59890       -1.28914
C          4.88380        3.23217        0.53083
H          5.21228        2.51143        1.29349
H          4.26570        4.00038        1.02092
H          5.77640        3.72918        0.11979
O          5.53746        1.76555       -2.38737
O          5.41614        0.56232       -0.49966
C          6.38661       -0.33241       -1.03920
H          6.57837       -1.08346       -0.26237
H          7.31380        0.20276       -1.29409
H          6.00786       -0.81588       -1.95324
H          4.50047        4.17329       -1.96177
H          2.93715        4.31237       -1.11738
H          3.13907        3.17608       -2.47932
