52
POLY_PPO5.gamout	Energy:    -965.6490384
C          0.35473        0.34961       -0.47718
C          1.46109       -0.66600       -0.73763
H          1.42893       -0.93113       -1.81526
C          1.29383       -1.93449        0.09239
O          2.66520        0.02655       -0.45812
C          3.84751       -0.55947       -0.93803
H          0.30015       -2.36631       -0.09640
H          1.37776       -1.69917        1.16643
H          2.05189       -2.69164       -0.15795
H          3.75139       -0.83667       -2.00895
H          4.11428       -1.47900       -0.38378
C          4.98689        0.44094       -0.77728
H          5.04975        0.70869        0.29818
C          4.76572        1.70921       -1.59588
O          6.15444       -0.26437       -1.15988
H          3.79046        2.14774       -1.33788
H          4.77162        1.46999       -2.67214
H          5.54242        2.46412       -1.40311
C          7.37402        0.29370       -0.74504
H          7.39589        0.43948        0.35559
H          7.56168        1.28015       -1.20895
C          8.50626       -0.64000       -1.15349
H          8.45310       -0.77159       -2.25418
C          8.40747       -2.00580       -0.48164
O          9.69320        0.05450       -0.81485
H          7.42365       -2.45005       -0.69394
H          8.51798       -1.89862        0.61006
H          9.18274       -2.69696       -0.84413
C         10.86497       -0.36848       -1.46208
O         -0.87430       -0.22187       -0.83489
H          0.58225        1.26012       -1.06365
H          0.37134        0.63913        0.59496
H         10.73907       -0.37133       -2.56534
H         11.16262       -1.39216       -1.16572
C         11.99626        0.57914       -1.08872
H         12.08287        0.56602        0.01800
C         11.73516        2.00945       -1.54493
O         13.15761        0.02580       -1.68815
H         10.79951        2.38448       -1.10413
H         11.65097        2.05137       -2.64354
H         12.55454        2.67846       -1.23386
H         13.90990        0.58898       -1.46732
C         -2.03494        0.51353       -0.47880
C         -2.24726        1.72530       -1.38768
H         -1.92053        0.87301        0.56650
C         -3.19631       -0.46485       -0.54173
H         -3.01008       -1.31912        0.12583
H         -3.31133       -0.85266       -1.56694
H         -4.13926        0.01815       -0.24221
H         -2.32248        1.40508       -2.43993
H         -1.42179        2.44845       -1.30565
H         -3.17624        2.25272       -1.11743
