86
POLY_PCHMA3.gamout	Energy:   -1622.5475715
C          0.22009        0.64783        0.63635
C         -0.10459        0.35250       -0.83427
C          1.19184       -0.14433       -1.53050
C         -1.18522       -0.75155       -1.03474
C         -0.48305        1.61663       -1.62470
O         -1.03905        1.59800       -2.69841
O         -0.04484        2.74632       -1.03648
H          1.56885       -1.04893       -1.02801
H          1.97926        0.62415       -1.48282
H          1.00987       -0.38570       -2.58830
H          1.08550        1.31835        0.71689
H          0.45830       -0.29048        1.15914
H         -0.61720        1.12920        1.15777
C         -2.56073       -0.71325       -0.28131
H         -0.71731       -1.71535       -0.78665
H         -1.41048       -0.76844       -2.11024
C         -3.27763        0.62602       -0.46492
C         -2.27635       -1.05336        1.19349
C         -3.39386       -1.88829       -0.89093
H         -3.43523        0.82097       -1.53395
H         -2.69738        1.46050       -0.04839
H         -4.24955        0.63757        0.04587
O         -1.71076       -2.06500        1.54403
O         -2.68751       -0.10778        2.05698
C         -4.90392       -2.03287       -0.58316
C         -5.74020       -1.08950       -1.44663
C         -5.29501       -2.08542        0.89301
H         -5.11590       -1.13342        1.41239
H         -4.71239       -2.86604        1.40459
H         -6.36111       -2.32458        1.00399
O         -5.53052       -0.90765       -2.62351
O         -6.75628       -0.51605       -0.77550
H         -5.15542       -3.01880       -1.01822
C         -7.64344        0.35583       -1.50947
C         -2.33276       -0.24453        3.45264
C         -0.22667        3.99653       -1.73846
H         -1.31280       -0.66215        3.50075
C         -3.28110       -1.18165        4.18980
C         -2.35647        1.15553        4.04443
C         -1.47062        4.70897       -1.22195
H         -0.36137        3.75938       -2.80531
C          1.02817        4.83190       -1.53575
C         -8.89835       -0.40255       -1.92411
H         -7.10710        0.69147       -2.41044
C         -7.97035        1.54187       -0.61935
H         -1.38280        4.82688       -0.12691
H         -2.35641        4.08666       -1.41612
C         -1.62089        6.07855       -1.88930
H          1.89748        4.29139       -1.93927
H          1.19962        4.95610       -0.45144
C          0.87875        6.20347       -2.20245
C         -0.36739        6.93353       -1.69808
H          0.80473        6.07041       -3.29729
H          1.78091        6.80866       -2.02358
H         -1.80409        5.93625       -2.96996
H         -2.50642        6.59650       -1.48955
H         -0.48106        7.89732       -2.21793
H         -0.24360        7.16865       -0.62453
H         -7.04444        2.07583       -0.36046
H         -8.40585        1.17069        0.32578
C         -8.95914        2.48044       -1.31592
H         -9.36291       -0.83670       -1.02086
H         -8.62251       -1.23665       -2.58624
C         -9.88821        0.53593       -2.62200
C        -10.22663        1.73871       -1.74133
H         -8.47636        2.91640       -2.20950
H         -9.20720        3.32307       -0.65296
H         -9.44177        0.89117       -3.56859
H        -10.80132       -0.01447       -2.89474
H        -10.90434        2.42207       -2.27462
H        -10.77101        1.39579       -0.84168
H         -3.21211       -2.18843        3.75829
H         -4.31538       -0.82251        4.04657
C         -2.94348       -1.21409        5.68418
H         -3.36242        1.58391        3.89044
H         -1.64998        1.79786        3.49931
C         -2.02371        1.12590        5.53790
H         -1.93969       -1.65636        5.82107
H         -3.64729       -1.87558        6.21271
H         -0.98078        0.78505        5.67295
C         -2.96494        0.18779        6.29348
H         -2.07511        2.14365        5.95246
H         -3.99415        0.58968        6.24999
H         -2.68928        0.14712        7.35825
H         -2.90021       -2.82260       -0.59229
H         -3.31457       -1.81857       -1.98359
