62
POLY_PVAC5.gamout	Energy:   -1531.7425765
C         -0.13384       -0.28665       -0.14697
C         -1.06544        0.73418        0.48912
H         -0.66348       -1.23856       -0.29739
H          0.16198        0.08348       -1.14265
C          1.15276       -0.51810        0.65640
H         -1.44577        0.39954        1.46737
H         -0.55678        1.69852        0.66100
O         -2.16572        0.92869       -0.40594
C         -3.10428        1.81813       -0.02263
O         -3.04284        2.44267        1.00716
C         -4.20827        1.90918       -1.04538
H         -4.67487        0.92111       -1.18091
H         -3.79334        2.20862       -2.02034
H         -4.95792        2.63768       -0.71467
O          0.88441       -0.91698        2.03048
H          1.64662        0.45475        0.80712
C          2.14442       -1.46116       -0.04411
H          2.26478       -1.12364       -1.08401
H          1.71345       -2.47269       -0.07459
C          3.53113       -1.55537        0.61585
C          0.24877       -2.07244        2.32164
O         -0.13131       -2.87337        1.50257
C          0.08080       -2.21546        3.81418
H         -0.56380       -1.40898        4.19766
H          1.05424       -2.11743        4.31791
H         -0.36883       -3.18999        4.03808
H          3.39554       -1.80525        1.67879
O          4.19046       -0.25859        0.70688
C          4.43871       -2.62380       -0.02138
C          4.56914        0.42687       -0.39154
O          4.37477        0.07134       -1.52944
C          5.26924        1.70369        0.00375
H          4.66721       -2.32908       -1.05676
H          3.87540       -3.56702       -0.07135
C          5.76724       -2.87442        0.71380
O          5.57646       -3.38351        2.06252
H          6.23362       -1.89928        0.91591
C          6.75179       -3.72860       -0.09852
H          6.99259       -3.16645       -1.01661
H          6.27142       -4.66621       -0.41179
C          8.06081       -4.07737        0.61064
C          5.06469       -4.61298        2.28754
H          6.14101        1.47657        0.63634
H          4.59388        2.33706        0.59961
H          5.58560        2.23884       -0.89922
O          4.65149       -5.35213        1.42796
C          5.09011       -4.92862        3.76099
H          4.52184       -4.17055        4.32155
H          6.12545       -4.89865        4.13389
H          4.65903       -5.92276        3.92574
H          7.87602       -4.76477        1.44920
C          8.86202       -2.88555        1.11632
O          8.83425       -4.79626       -0.37552
H          8.31385       -2.36288        1.91491
H          9.06964       -2.17009        0.30365
H          9.81725       -3.22843        1.53830
C          9.64072       -5.78334        0.06167
O          9.76495       -6.08628        1.22290
C         10.34504       -6.44520       -1.09420
H         10.86131       -5.69065       -1.70658
H          9.60577       -6.94037       -1.74367
H         11.05992       -7.18476       -0.71489
