52
POLY_PBD5.gamout	Energy:    -780.1730281
C         -0.09452       -0.01558        0.01466
C          1.40205       -0.01727       -0.22736
H         -0.60110        0.57948       -0.76831
C         -0.71314       -1.42046        0.05018
H         -0.32087        0.50027        0.96648
C          2.18081        1.06956       -0.30545
C          3.67761        1.06709       -0.54724
H          3.90359        0.55102       -1.49901
H          4.18314        0.47120        0.23576
C          4.29870        2.47115       -0.58242
H          1.87191       -1.00450       -0.34715
H          1.71098        2.05678       -0.18570
H         -0.20585       -2.01521        0.83293
H         -0.48599       -1.93577       -0.90176
C         -2.20978       -1.42020        0.29210
C         -2.98689       -2.50838        0.36949
C         -4.48410       -2.51077        0.61075
H         -4.99126       -1.91564       -0.17183
H         -4.71219       -1.99631        1.56295
C         -5.10101       -3.91713        0.64418
H         -2.68078       -0.43356        0.41218
H         -2.51507       -3.49456        0.24896
H          4.07172        2.98692        0.36933
H          3.79299        3.06682       -1.36553
C          5.79604        2.46867       -0.82305
C          6.57605        3.55491       -0.89903
C          8.07357        3.55321       -1.13862
H          6.26501        1.48105       -0.94314
H          6.10675        4.54233       -0.77868
H          8.30151        3.03895       -2.09098
H          8.57833        2.95617       -0.35592
C          8.69445        4.95772       -1.17023
H          8.46579        5.47150       -0.21783
H          8.18969        5.55470       -1.95294
C         10.19142        4.95835       -1.40830
C         10.96592        6.04806       -1.48034
C         12.45790        6.04134       -1.71732
H         12.72020        5.56991       -2.68039
H         12.99784        5.48618       -0.93056
H         12.86584        7.06266       -1.73262
H         10.66458        3.97296       -1.52986
H         10.49163        7.03180       -1.35881
H         -4.59338       -4.51201        1.42662
H         -4.87199       -4.43089       -0.30816
C         -6.59778       -3.92256        0.88430
C         -7.36865       -5.01476        0.95804
C         -8.86032       -5.01286        1.19712
H         -9.40324       -4.45997        0.41082
H         -9.12297       -4.54189        2.16033
H         -9.26473       -6.03555        1.21351
H         -7.07402       -2.93867        1.00598
H         -6.89130       -5.99701        0.83636
