23
POLY_PEO3.gamout	Energy:    -462.0871538
O        -17.98330       -0.31827       -0.14849
C        -19.22009       -0.98743       -0.03126
H        -19.44692       -1.28062        1.01394
H        -19.26462       -1.90979       -0.64533
C        -20.30009       -0.03499       -0.51122
H        -20.08626        0.26581       -1.55789
H        -20.27361        0.88991        0.10190
O        -21.53818       -0.68735       -0.40646
C        -22.63321        0.08068       -0.83178
H        -22.52852        0.38360       -1.89416
H        -22.72971        1.01202       -0.23664
C        -23.88567       -0.75905       -0.66868
H        -23.99910       -1.05239        0.39615
H        -23.77861       -1.69728       -1.25228
O        -24.97678        0.00120       -1.11208
C        -26.21554       -0.65925       -1.01974
H        -26.42291       -0.94531        0.03403
H        -26.19304       -1.60560       -1.60234
C        -27.29987        0.26145       -1.54417
H        -27.10262        0.53054       -2.59380
H        -27.33556        1.19130       -0.95516
H        -28.28544       -0.22698       -1.48756
H        -17.28381       -0.91155        0.14944
