65
POLY_IPP7.gamout	Energy:    -825.5352932
C          1.75983        1.32791       -0.37605
C          0.63686        2.18091       -1.00661
H          1.00058        3.21820       -1.10415
H          0.45454        1.83758       -2.04202
C         -0.68302        2.21527       -0.22938
H         -0.52996        2.61538        0.78748
H         -1.13432        1.21655       -0.12290
H         -1.42204        2.86093       -0.73112
H          1.63915        1.31925        0.72461
H          2.72537        1.82872       -0.56016
C          1.90672       -0.12556       -0.88159
H          2.10218       -0.05686       -1.96967
C          0.62788       -0.95288       -0.69272
C          3.13170       -0.81245       -0.21716
H          2.78236       -1.48979        0.58483
H          3.73512       -0.04482        0.29568
C          4.08833       -1.59371       -1.15052
H          0.33429       -0.98406        0.37100
H          0.77191       -1.99153       -1.02558
H         -0.21738       -0.53952       -1.26364
H          4.42515       -0.88266       -1.93186
C          3.39341       -2.75699       -1.86444
C          5.35050       -2.01287       -0.36015
H          5.06190       -2.72522        0.43701
H          5.70011       -1.11038        0.16799
C          6.54779       -2.59952       -1.15499
H          2.53195       -2.40758       -2.45409
H          3.02446       -3.50910       -1.14505
H          4.06928       -3.26951       -2.56360
H          6.58721       -2.05350       -2.11680
C          6.37058       -4.11203       -1.45419
C          7.88676       -2.31534       -0.42151
H          8.07900       -3.12598        0.30740
H          7.76692       -1.40051        0.18190
C          9.14673       -2.10286       -1.29371
H          8.91956       -1.25999       -1.97769
C          9.50164       -3.30917       -2.16841
C         10.31994       -1.64264       -0.39621
H         10.55901       -2.45114        0.32084
H          9.94003       -0.81265        0.22126
C         11.62009       -1.18134       -1.11763
H          5.50338       -4.52874       -0.91984
H          7.24704       -4.69236       -1.13190
H          6.22329       -4.32247       -2.52440
H          8.66674       -3.59423       -2.82483
H          9.76398       -4.18991       -1.55599
H         10.36016       -3.09169       -2.82197
H         11.35021       -0.96018       -2.16879
C         12.66311       -2.30808       -1.11731
C         12.20768        0.12892       -0.52004
H         12.94889       -0.12551        0.26289
H         11.39928        0.66318        0.00530
C         12.83581        1.14134       -1.50285
H         12.05131        1.39863       -2.24218
C         14.04072        0.61019       -2.28482
C         13.21570        2.43397       -0.76731
H         13.98863        2.24385       -0.00160
H         12.34669        2.87978       -0.25711
H         13.61799        3.18739       -1.46366
H         12.26501       -3.23132       -1.56267
H         12.96997       -2.54598       -0.08379
H         13.56867       -2.03112       -1.67476
H         13.77743       -0.25089       -2.91686
H         14.85226        0.29437       -1.60559
H         14.44684        1.39142       -2.94703
