65
POLY_PBMA3.gamout	Energy:   -1272.8250582
C          0.94143       -8.26215        0.36303
C         -0.25530       -7.86250        1.20762
C          1.15738       -9.75376        0.08551
H          1.91331       -9.85139       -0.71336
H          0.22538      -10.18253       -0.31167
C          1.59458      -10.62691        1.29113
O         -0.40148       -6.77097        1.69864
O         -1.16901       -8.84826        1.31782
C         -2.35234       -8.54621        2.07209
H         -2.83050       -7.64600        1.65013
H         -2.06630       -8.29966        3.10862
C         -3.26919       -9.75395        2.00899
H         -2.73193      -10.63101        2.41277
H         -3.48110       -9.98347        0.94922
C         -4.58181       -9.55178        2.77086
H         -5.10698       -8.66651        2.36783
H         -4.36033       -9.31499        3.82747
C         -5.50949      -10.76531        2.70195
H         -5.03220      -11.66236        3.13224
H         -5.78272      -11.00478        1.66025
H         -6.44338      -10.58948        3.25822
H          0.89093      -10.44164        2.11705
C          2.94359      -10.13663        1.79732
C          1.57132      -12.11818        0.90823
H          2.29885      -12.28845        0.10033
H          0.57711      -12.35576        0.49231
C          1.88810      -13.13378        2.03489
O          3.09471       -9.17410        2.51096
O          3.97691      -10.85671        1.31476
C          5.29585      -10.42545        1.68457
H          5.38278      -10.43025        2.78430
H          5.43801       -9.38103        1.35848
C          6.29754      -11.36252        1.03489
H          6.15281      -11.33741       -0.06012
H          6.07641      -12.39753        1.35189
C          7.74614      -11.01064        1.38205
H          7.87472      -11.03997        2.47946
H          7.95292       -9.96678        1.08270
C          8.76811      -11.93949        0.72563
H          8.70523      -11.89632       -0.37491
H          8.60842      -12.98957        1.02446
H          9.79584      -11.66642        1.01071
C          0.79395      -13.09049        3.08656
H          2.79680      -12.79252        2.55445
C          2.14094      -14.53345        1.46769
H          2.99950      -14.50621        0.77942
H          1.26682      -14.91077        0.91606
H          2.37078      -15.25456        2.26620
O          0.73884      -12.27662        3.97929
O         -0.14577      -14.03501        2.89914
C         -1.23084      -14.05825        3.83723
H         -1.76083      -13.09129        3.79558
H         -0.82565      -14.15323        4.85904
C         -2.14648      -15.21427        3.48038
H         -1.56610      -16.15383        3.50163
H         -2.49432      -15.08690        2.43962
C         -3.34548      -15.31909        4.42564
H         -3.91156      -14.36972        4.40307
H         -2.98161      -15.42682        5.46367
C         -4.28548      -16.47732        4.09139
H         -3.76239      -17.44778        4.13206
H         -4.71113      -16.37311        3.07890
H         -5.12490      -16.52268        4.80197
H          1.81690       -7.79535        0.83826
H          0.80999       -7.74202       -0.60148
