62
POLY_PIB5.gamout	Energy:    -786.2621154
C         -5.30367       -0.83102        0.43447
C         -4.74568        0.51357        0.93664
C         -5.05429        0.60122        2.44749
C         -3.18733        0.59085        0.81865
C         -2.36077        0.76022       -0.50444
C         -0.90201        0.37172       -0.06952
C          0.42872        0.65493       -0.85431
C          1.45799       -0.29108       -0.14093
C          3.02251       -0.23549       -0.24472
C          3.49239       -1.59013        0.38989
C          4.93631       -1.79870        0.90668
C          5.00113       -3.10633        1.71383
C          6.03385       -1.81769       -0.16599
C          3.52850       -0.12274       -1.69133
C          3.58724        0.93392        0.57855
C          0.32589        0.29922       -2.34538
C          0.81273        2.13719       -0.72669
C         -2.85765       -0.18407       -1.60925
C         -2.47245        2.20804       -1.00532
C         -5.50727        1.65856        0.24938
H         -6.36488       -0.93097        0.71598
H         -5.24536       -0.93355       -0.65678
H         -4.76224       -1.67974        0.88326
H         -4.55240       -0.20309        3.00992
H         -4.72040        1.56262        2.87063
H         -6.13715        0.51114        2.63519
H         -2.86107        1.41198        1.47979
H         -2.82370       -0.32869        1.30939
H         -0.73762        0.81443        0.92745
H         -0.94152       -0.71613        0.10883
H          1.24975       -0.23039        0.94067
H          1.15719       -1.31278       -0.42957
H          2.83851       -1.76962        1.26027
H          3.25575       -2.40165       -0.32341
H          5.16741       -0.97768        1.60879
H          4.78818       -3.98192        1.07504
H          6.00226       -3.25320        2.15053
H          4.27287       -3.11444        2.54050
H          5.78986       -2.52061       -0.98121
H          6.20947       -0.82951       -0.61444
H          6.99065       -2.14194        0.27394
H          3.23260        0.82944       -2.15488
H          4.62485       -0.16288       -1.72586
H          3.14769       -0.94144       -2.32184
H          3.28549        0.86314        1.63671
H          4.68739        0.94738        0.54764
H          3.24515        1.90462        0.19946
H         -0.42652        0.91864       -2.85392
H          1.27919        0.47093       -2.86013
H          0.05206       -0.75690       -2.49555
H          0.92761        2.43774        0.32622
H          1.75919        2.34851       -1.24420
H          0.05086        2.78543       -1.17628
H         -3.88034        0.07252       -1.91955
H         -2.22718       -0.12014       -2.50413
H         -2.85937       -1.23378       -1.27645
H         -2.11179        2.92938       -0.25561
H         -1.89647        2.36211       -1.92904
H         -3.51416        2.46462       -1.23557
H         -6.57827        1.59738        0.50283
H         -5.14742        2.64614        0.57869
H         -5.43518        1.61769       -0.84752
