77
POLY_PMMA5.gamout	Energy:   -1727.9674649
C         -1.39794        0.39426       -0.44366
C         -0.44118       -0.35795        0.48425
C         -0.53256       -1.86391        0.26149
C          1.00357        0.19472        0.57635
H         -2.41927        0.00380       -0.33632
H         -1.40965        1.46512       -0.19015
H         -0.82096       -0.24503        1.51779
O         -1.28444       -2.42071       -0.50072
O          0.29961       -2.53821        1.08408
H          0.94367        1.18393        1.05285
C          1.89129        0.33915       -0.70540
H          1.54927       -0.45320        1.27695
C          0.23983       -3.96103        1.00667
H          0.48807       -4.31040       -0.00725
H         -0.76821       -4.32462        1.25861
H          0.97294       -4.33921        1.73039
C          1.32148        1.45056       -1.59635
C          1.91598       -0.96099       -1.51515
C          3.29972        0.73644       -0.15260
H          3.55999       -0.02852        0.59336
H          3.16455        1.67595        0.40336
C          4.56453        0.93981       -1.05747
H          2.50927       -0.85262       -2.43077
H          0.90660       -1.24243       -1.83910
H          2.33285       -1.77640       -0.90907
O          1.23338        2.63103       -0.94842
O          0.97291        1.31735       -2.74483
C          0.67822        3.71424       -1.69241
H          1.23451        3.87695       -2.62771
H          0.74660        4.59799       -1.04544
H         -0.37313        3.51092       -1.94855
H         -1.12017        0.29189       -1.50195
C          4.33416        2.00255       -2.13449
C          4.93930       -0.37442       -1.75316
C          5.68003        1.34692       -0.03369
H          5.78815        0.50102        0.66032
H          5.26641        2.17681        0.55713
C          7.13421        1.76932       -0.44479
O          5.04988       -0.52810       -2.94577
O          5.13993       -1.37839       -0.87422
C          5.49682       -2.63987       -1.43613
H          5.64519       -3.32075       -0.58810
H          6.42083       -2.55990       -2.02882
H          4.69817       -3.01718       -2.09300
H          5.23890        2.17326       -2.72728
H          4.02511        2.94966       -1.67208
H          3.56298        1.68064       -2.84263
C          7.10135        3.08366       -1.23443
C          7.83048        0.70950       -1.30251
C          7.87837        1.98016        0.92088
H          7.70480        1.07383        1.51728
H          7.36815        2.79824        1.44934
C          9.40211        2.28063        0.99999
H          7.86259       -0.24796       -0.76661
H          8.85585        1.01169       -1.54647
C          9.84283        3.47142        0.14445
C         10.26964        1.07066        0.64657
C          9.73341        2.59075        2.48347
H          9.27054        4.36674        0.42741
H          9.70396        3.29169       -0.92887
H         10.90973        3.67656        0.30211
H          9.40639        1.77562        3.14436
H          9.23270        3.51949        2.79797
H         10.81740        2.72959        2.61680
H          7.31762        0.56791       -2.25998
O          6.53584        4.08694       -0.53198
C          6.49628        5.35696       -1.17879
O          7.52346        3.24200       -2.35526
H          5.95253        5.29867       -2.13372
H          7.51449        5.72017       -1.38697
H          5.98446        6.03722       -0.48636
O          9.83438       -0.05748        1.24580
C         10.61810       -1.22626        1.02111
O         11.26863        1.09780       -0.03100
H         11.66627       -1.05828        1.30982
H         10.59545       -1.51350       -0.04222
H         10.17236       -2.01790        1.63666
