23
POLY_PVA3.gamout	Energy:    -462.1130810
C          0.09194        0.10140        0.04359
C          1.36624       -0.37163        0.72876
H          2.14404       -0.58496       -0.01986
H          1.17275       -1.29812        1.29447
H          1.74911        0.39031        1.42666
O         -0.33539       -0.92775       -0.83455
H          0.32250        1.01161       -0.54399
C         -1.01106        0.47845        1.05676
H         -1.01604       -0.51963       -1.39108
H         -0.77011        1.46513        1.49137
H         -1.02153       -0.24643        1.89003
C         -2.41249        0.50274        0.43953
H         -2.71982       -0.54568        0.27353
O         -2.33544        1.15246       -0.83190
C         -3.46455        1.16101        1.35776
H         -3.02107        2.00220        1.91833
H         -3.79607        0.41611        2.10097
C         -4.66865        1.70541        0.59470
O         -5.08227        0.73786       -0.36868
H         -4.38566        2.64928        0.09043
H         -5.48527        1.94029        1.30317
H         -3.20814        1.01901       -1.23773
H         -5.88923        1.05064       -0.79731
