20
POLY_PVC3.gamout	Energy:   -1614.9390140
Cl        -4.26297        0.48751        0.09571
C         -2.67867       -0.16978       -0.47412
C         -1.51848        0.56025        0.19073
C         -0.13654        0.10186       -0.28880
C          0.99083        0.93447        0.33102
C          2.36862        0.90492       -0.33897
C          3.24277        2.07905        0.08586
Cl         3.27705       -0.63503        0.02332
Cl         0.05492       -1.67688        0.07873
H         -2.66639       -1.24079       -0.23873
H         -2.66020       -0.04887       -1.56732
H         -1.61462        1.64003       -0.01612
H         -1.58539        0.43480        1.28409
H         -0.08381        0.16485       -1.38766
H          0.65303        1.98558        0.27772
H          1.09018        0.69224        1.40200
H          2.24934        0.90428       -1.43373
H          3.39765        2.07534        1.17634
H          4.22688        2.02291       -0.39992
H          2.76796        3.03416       -0.19552
