52
POLY_PVME5.gamout	Energy:    -965.5966176
C         -0.47070        0.26372        0.34503
C         -0.59046       -1.08012        1.07392
O          0.73828        0.40926       -0.37319
C          1.84315        0.80337        0.39549
H         -0.59273        1.09725        1.06647
H         -1.27678        0.34424       -0.40128
H          0.27600       -1.21912        1.74249
C         -0.67106       -2.28286        0.11706
H         -1.47309       -1.04929        1.73755
H          2.12063        0.06252        1.17258
H          1.66940        1.77613        0.90128
H          2.69983        0.91510       -0.28606
H          0.17633       -2.20279       -0.58115
O         -1.80500       -2.22178       -0.74935
C         -0.55249       -3.63595        0.84523
H         -1.42467       -3.79083        1.50431
H          0.31776       -3.58997        1.52315
C         -0.42791       -4.85277       -0.09460
O          0.70597       -4.76557       -0.95864
H         -1.27202       -4.81700       -0.80035
C         -0.50159       -6.19668        0.65832
H         -1.37099       -6.16780        1.33787
H          0.37571       -6.31314        1.31771
C         -0.59407       -7.43132       -0.26217
C         -3.08799       -2.19583       -0.17765
H         -3.29703       -1.26421        0.38453
H         -3.28668       -3.05100        0.49815
H         -3.80646       -2.25284       -1.00925
C          1.99221       -4.81828       -0.39635
H          2.21298       -5.78203        0.10347
H          2.18910       -4.00556        0.33016
H          2.70329       -4.70247       -1.22820
H          0.20722       -7.35074       -1.01253
O         -1.77708       -7.42726       -1.06436
C         -0.38853       -8.76112        0.48931
H         -1.23047       -8.94384        1.17979
H          0.50201       -8.66757        1.13456
C         -0.23248       -9.98315       -0.43525
O          0.91800       -9.87856       -1.27282
H         -1.06445       -9.95551       -1.15752
C         -0.30198      -11.30960        0.32669
H         -1.30064      -11.43968        0.77291
H          0.43381      -11.36667        1.14599
H         -0.12326      -12.15287       -0.35806
C         -3.02441       -7.56230       -0.43279
H         -3.24451       -6.74964        0.28708
H         -3.14593       -8.52614        0.09952
H         -3.78582       -7.52030       -1.22607
C          2.17824      -10.10307       -0.69448
H          2.32208      -11.14971       -0.36332
H          2.39034       -9.44021        0.16824
H          2.92697       -9.88923       -1.47212
