32
POLY_PBD3.gamout	Energy:    -468.5818255
C          0.08991        0.02419        0.01940
C         -1.20315       -0.71470       -0.26181
H         -0.03226        0.66915        0.90985
C          1.29435       -0.90189        0.23603
H          0.31395        0.71714       -0.81349
C         -2.39422       -0.14396       -0.48729
C         -3.68728       -0.88316       -0.76857
H         -3.91088       -1.57618        0.06438
H         -3.56451       -1.52823       -1.65887
C         -4.89282        0.04190       -0.98556
H         -1.13963       -1.81260       -0.27859
H         -2.45766        0.95391       -0.47052
H          1.41625       -1.54682       -0.65446
H          1.07018       -1.59473        1.06897
C          2.58731       -0.16391        0.51692
C          3.77573       -0.73796        0.74140
C          5.06079        0.00483        1.02098
H          4.98604        0.63018        1.92778
H          5.33626        0.67832        0.19062
H          5.90232       -0.68740        1.17140
H          2.52658        0.93408        0.53424
H          3.83434       -1.83508        0.72370
H         -4.66909        0.73479       -1.81858
H         -5.01528        0.68696       -0.09523
C         -6.18570       -0.69673       -1.26661
C         -7.37445       -0.12345       -1.49139
C         -8.65912       -0.86689       -1.77109
H         -8.93459       -1.54037       -0.94072
H         -8.58421       -1.49225       -2.67788
H         -9.50070       -0.17482       -1.92162
H         -6.12433       -1.79468       -1.28377
H         -7.43380        0.97364       -1.47386
