38
POLY_PIB3.gamout	Energy:    -472.2467815
C          3.19567        0.43800        0.24213
C          2.30609        0.02727       -0.94573
C          3.01953       -1.13806       -1.66658
C          0.92303       -0.53534       -0.48214
C         -0.26541        0.30739        0.08962
C         -1.24607       -0.73256        0.72243
C         -2.63807       -0.24635        1.20216
C         -3.74195       -0.52944        0.17454
C         -3.01671       -0.86861        2.55445
C          0.17424        1.29009        1.18649
C         -0.96318        1.08708       -1.03618
C          2.22264        1.19967       -1.93813
H          4.21983        0.65029       -0.10652
H          2.83419        1.33974        0.75458
H          3.26212       -0.36969        0.98951
H          3.13381       -2.01204       -1.00432
H          2.45987       -1.46681       -2.55762
H          4.02730       -0.83664       -1.99678
H          0.50540       -1.09531       -1.33725
H          1.16193       -1.30790        0.27042
H         -1.39171       -1.56109        0.00606
H         -0.71520       -1.18006        1.57918
H         -2.59650        0.84715        1.35530
H         -3.87684       -1.61636        0.03353
H         -4.70937       -0.11498        0.50239
H         -3.51073       -0.09426       -0.80886
H         -2.28211       -0.61776        3.33665
H         -4.00167       -0.50913        2.89437
H         -3.06946       -1.96993        2.48777
H          0.81142        2.09237        0.78706
H         -0.69982        1.77777        1.64602
H          0.72964        0.78005        1.98896
H         -1.31046        0.41048       -1.83347
H         -1.83607        1.64226       -0.65951
H         -0.29120        1.82330       -1.49514
H          3.22978        1.43884       -2.31761
H          1.59212        0.95572       -2.80756
H          1.82883        2.11697       -1.47563
