29
POLY_SPP3.gamout	Energy:    -354.4958543
C         -0.16668       -0.00756        0.13125
C          1.15360        0.62323        0.60024
C         -0.17772       -1.53762        0.09823
H         -0.96506        0.34019        0.81046
H         -0.44315        0.38470       -0.86353
C          2.42272        0.29683       -0.21626
H          1.33159        0.32410        1.64975
H          1.02861        1.72214        0.62270
H          0.11642       -1.96219        1.07363
H          0.51377       -1.94259       -0.65862
H         -1.18272       -1.92097       -0.13996
C          2.29108        0.74878       -1.67570
H          2.55112       -0.80060       -0.21224
C          3.65625        0.91806        0.47340
H          3.65629        0.60344        1.53427
H          3.52594        2.01660        0.48967
C          5.04699        0.60484       -0.11462
H          2.16208        1.84405       -1.73877
H          1.42375        0.28493       -2.16961
H          3.18016        0.48482       -2.26838
H          5.07384        0.98020       -1.15448
C          5.34946       -0.89714       -0.14822
C          6.13618        1.35354        0.66443
H          6.17390        1.02018        1.71679
H          5.95674        2.44106        0.66846
H          7.13201        1.17903        0.22630
H          4.66229       -1.44682       -0.80948
H          5.26753       -1.33871        0.86071
H          6.37374       -1.08391       -0.50868
