32
POLY_PPO3.gamout	Energy:    -579.8696354
C          1.28900        1.05193       -0.34934
C          2.62074        0.31804       -0.29327
H          2.68090       -0.38389       -1.15253
C          2.78941       -0.47940        1.00067
O          3.63296        1.30405       -0.44135
C          4.89747        0.84245       -0.83861
H          1.97486       -1.21286        1.11461
H          2.77138        0.19799        1.87042
H          3.73921       -1.03550        1.01865
H          4.82955        0.21988       -1.75581
H          5.38411        0.22586       -0.05898
C          5.79300        2.04462       -1.11794
H          5.85914        2.63879       -0.18263
C          5.24687        2.92898       -2.23389
O          7.06115        1.49212       -1.42150
H          4.22371        3.24510       -1.98325
H          5.22033        2.36902       -3.18331
H          5.85943        3.83141       -2.37924
C          8.15418        2.37161       -1.35554
H          8.17937        2.91115       -0.38541
H          8.12616        3.13438       -2.15604
C          9.43472        1.56232       -1.51169
H          9.36529        1.02581       -2.48129
C          9.61283        0.53901       -0.39689
O         10.48177        2.51888       -1.54063
H          8.75622       -0.15107       -0.37407
H          9.68594        1.04452        0.58041
H         10.52923       -0.05553       -0.54790
H         11.31756        2.04914       -1.65319
H          0.44569        0.34716       -0.28127
H          1.20408        1.61345       -1.29126
H          1.21327        1.76906        0.48430
