82
POLY_PS5.gamout	Energy:   -1547.4399318
C          0.84876       -0.62763       -0.35984
C          0.46581       -1.22223       -1.57383
C          0.01802       -0.45174       -2.64739
C         -0.05908        0.93929       -2.53061
C          0.32180        1.54661       -1.33338
C          0.77226        0.76911       -0.26194
C          1.34996       -1.47770        0.79083
C          0.30690       -2.42993        1.41321
H         -0.20206       -2.97748        0.60198
C         -0.77406       -1.78599        2.31974
H          0.84393       -3.19503        2.00041
H         -1.27439       -0.99567        1.73563
C         -0.15886       -1.12852        3.55124
C         -1.83535       -2.85756        2.68121
H         -1.36170       -3.60738        3.33836
H         -2.10025       -3.40113        1.75801
C         -3.14842       -2.38116        3.36328
C         -3.98695       -1.51762        2.42793
H         -2.86649       -1.76310        4.23134
C         -3.92823       -3.61588        3.89422
H          1.76968       -0.82654        1.57344
H          2.18861       -2.09642        0.42819
C          0.51057       -1.89072        4.52368
C         -0.22128        0.25992        3.74523
H          0.58242       -2.97575        4.41169
C          1.08872       -1.29158        5.64328
C          0.35538        0.86736        4.86679
H         -0.73255        0.87872        3.00276
C          1.01412        0.09222        5.82113
H          0.28742        1.95100        4.99133
H          1.59938       -1.91148        6.38425
H          1.46585        0.56028        6.69863
H          1.08111        1.25770        0.66571
H          0.27057        2.63323       -1.22961
H         -0.41029        1.54435       -3.36978
H         -0.27007       -0.93934       -3.58184
H          0.53190       -2.30833       -1.68484
C         -4.54604       -2.04864        1.25318
C         -4.20808       -0.15845        2.69537
H         -4.39995       -3.10364        1.00709
C         -5.28374       -1.25153        0.37815
C         -4.94629        0.64593        1.82116
H         -3.79167        0.27998        3.60600
C         -5.48551        0.10231        0.65586
H         -5.10020        1.70219        2.05563
H         -5.70413       -1.69086       -0.52968
H         -6.06140        0.72677       -0.03068
H         -3.21023       -4.26845        4.41821
H         -4.27829       -4.20395        3.02875
C         -5.14187       -3.35738        4.82987
H         -5.76282       -2.57508        4.36321
C         -4.72507       -2.85383        6.20683
C         -6.01534       -4.63723        4.93661
H         -5.44763       -5.40990        5.48353
H         -6.16206       -5.04454        3.92216
C         -7.39086       -4.48573        5.62396
C         -8.41899       -3.67696        4.84268
H         -7.22799       -3.96046        6.57996
C         -7.97932       -5.86779        5.97012
H         -7.29699       -6.43503        6.62332
H         -8.15472       -6.46584        5.05984
H         -8.94409       -5.76530        6.48926
C         -3.89294       -3.61771        7.04176
C         -3.53029       -3.16881        8.31105
C         -5.18097       -1.62260        6.69853
H         -3.51787       -4.58623        6.70134
C         -4.81817       -1.16466        7.96952
H         -5.83048       -1.00521        6.07307
C         -3.99065       -1.93744        8.78268
H         -5.18597       -0.19808        8.32171
H         -2.88061       -3.78490        8.93699
H         -3.70355       -1.58559        9.77583
C         -8.69252       -3.91641        3.48735
C         -9.19751       -2.71703        5.50341
H         -8.10723       -4.65394        2.93359
C         -9.70803       -3.22726        2.82254
C        -10.21696       -2.02614        4.84506
H         -9.00307       -2.51149        6.55938
C        -10.47748       -2.27916        3.49855
H        -10.80487       -1.28455        5.38929
H         -9.89781       -3.43310        1.76649
H        -11.27203       -1.74045        2.97816
