29
POLY_IPP3.gamout	Energy:    -354.4897425
C          0.36042        0.15745       -0.36470
C         -0.98006       -0.18353       -1.05160
H         -1.57898        0.74090       -1.11577
H         -0.79159       -0.48055       -2.10011
C         -1.83102       -1.25019       -0.35529
H         -2.08010       -0.94619        0.67583
H         -1.31921       -2.22324       -0.29557
H         -2.78157       -1.40912       -0.89013
H          0.26625       -0.00162        0.72715
H          0.54813        1.23759       -0.48720
C          1.62072       -0.57948       -0.87076
H          1.71012       -0.34564       -1.94993
C          1.50035       -2.10393       -0.73312
C          2.88935       -0.03262       -0.16122
H          3.15346       -0.69725        0.68344
H          2.63958        0.93793        0.29986
C          4.14128        0.19729       -1.03247
H          0.68702       -2.50832       -1.35476
H          1.29903       -2.38887        0.31419
H          2.42722       -2.61023       -1.04022
H          3.84427        0.87541       -1.85645
C          4.70299       -1.07798       -1.66989
C          5.23409        0.91133       -0.22440
H          5.57119        0.28959        0.62366
H          4.87408        1.86777        0.18864
H          6.11637        1.12920       -0.84819
H          3.97722       -1.56335       -2.33971
H          4.99890       -1.81333       -0.90081
H          5.59818       -0.84946       -2.27061
