32
POLY_PVME3.gamout	Energy:    -579.8359795
C         -0.52127        0.16619        0.34926
C         -0.60988       -1.18155        1.07479
O          0.69129        0.35079       -0.35365
C          1.77662        0.76685        0.43109
H         -0.67869        0.99418        1.07006
H         -1.31991        0.22039       -0.40729
H          0.25633       -1.30168        1.74712
C         -0.65980       -2.38363        0.11449
H         -1.49541       -1.17415        1.73489
H          2.05866        0.03115        1.21119
H          1.57451        1.73421        0.93673
H          2.64025        0.89881       -0.23782
H          0.17935       -2.27681       -0.59031
O         -1.80349       -2.34997       -0.74226
C         -0.49136       -3.73406        0.83371
H         -1.34917       -3.92460        1.50230
H          0.38593       -3.66367        1.49987
C         -0.32649       -4.93666       -0.11321
O          0.83175       -4.82606       -0.93923
H         -1.15037       -4.89403       -0.84392
C         -0.40353       -6.27614        0.62563
H         -1.40776       -6.41752        1.05583
H          0.32092       -6.34218        1.45410
H         -0.21265       -7.10713       -0.07071
C         -3.08003       -2.42908       -0.16043
H         -3.32066       -1.56294        0.48708
H         -3.23333       -3.34903        0.43731
H         -3.80618       -2.44068       -0.98688
C          2.09001       -5.01043       -0.34278
H          2.24748       -6.04253        0.02609
H          2.28327       -4.31487        0.49801
H          2.84250       -4.81081       -1.12050
