44
POLY_PTFE7.gamout	Energy:   -3326.3481292
C          0.22456        0.04731        0.13500
C         -0.82137       -0.95554       -0.49749
F          0.63555        0.88716       -0.83038
F         -0.38577        0.74803        1.10563
C          1.49499       -0.65104        0.75944
F         -0.20675       -1.65241       -1.46784
C         -2.09436       -0.26128       -1.12492
F         -1.23077       -1.79714        0.46682
F          2.10578       -1.35415       -0.20951
F          1.08332       -1.48867        1.72655
C          2.54510        0.33953        1.38578
F          1.94443        1.04821        2.35775
F          2.96527        1.17635        0.42061
C          3.80486       -0.34426        2.00784
F          4.43647       -1.05713        1.05396
F          3.41496       -1.18003        2.99110
C          4.86246        0.60114        2.62640
F          4.32890        1.31848        3.62998
F          5.34966        1.43557        1.69202
H          5.67594       -0.03795        3.01611
F         -1.68149        0.58050       -2.08708
F         -2.70800        0.43413       -0.15380
C         -3.14169       -1.26061       -1.76393
F         -3.55230       -2.10301       -0.80146
F         -2.52460       -1.95439       -2.73408
C         -4.41602       -0.56739       -2.39466
F         -4.00095        0.27494       -3.35533
F         -5.03166        0.12725       -1.42421
C         -5.46304       -1.56615       -3.03567
F         -5.87487       -2.40761       -2.07276
F         -4.84501       -2.26107       -4.00439
C         -6.73739       -0.87627       -3.66976
F         -6.32313       -0.03585       -4.63290
F         -7.35630       -0.17881       -2.70272
C         -7.78444       -1.86850       -4.30744
F         -8.20618       -2.70891       -3.34634
F         -7.17543       -2.57076       -5.27818
C         -9.04556       -1.19262       -4.93766
F         -8.65388       -0.35288       -5.91636
F         -9.68800       -0.48696       -3.98665
C        -10.09698       -2.13915       -5.56618
F        -10.58759       -2.97770       -4.63772
F         -9.55742       -2.85062       -6.57000
H        -10.90815       -1.49816       -5.95658
