47
POLY_SPP5.gamout	Energy:    -590.0279984
C         -0.33756       -0.08978        0.43641
C          1.05132        0.11744        1.06106
C         -0.49165       -1.37933       -0.37378
H         -1.08041       -0.08738        1.25320
H         -0.59888        0.77616       -0.19744
C          2.24538        0.24508        0.08952
H          1.25215       -0.72269        1.75161
H          1.02048        1.02333        1.69511
H         -0.23152       -2.26578        0.23035
H          0.15485       -1.38705       -1.26641
H         -1.52929       -1.50824       -0.72089
C          2.07628        1.43781       -0.85835
H          2.27506       -0.67366       -0.52389
C          3.56243        0.31939        0.89406
H          3.60184       -0.55538        1.57040
H          3.51073        1.20460        1.55582
C          4.89410        0.38177        0.10903
H          2.03107        2.38751       -0.29589
H          1.15277        1.35976       -1.45206
H          2.90922        1.51564       -1.57368
H          4.86442        1.28312       -0.52893
C          5.07672       -0.83543       -0.80491
C          6.07211        0.54445        1.09747
H          6.07598       -0.33096        1.77385
H          5.86266        1.41723        1.74470
C          7.49620        0.70774        0.51685
H          4.25037       -0.93334       -1.52522
H          5.11796       -1.77042       -0.21797
H          6.00556       -0.77086       -1.39176
C          7.60774        1.93461       -0.39454
H          7.71498       -0.18751       -0.09273
C          8.52725        0.75427        1.66723
H          8.35734       -0.12011        2.32372
H          8.31081        1.64069        2.29314
C         10.02291        0.78410        1.29353
H         10.20167        1.66164        0.64491
C         10.45978       -0.46544        0.52261
C         10.88529        0.96533        2.55032
H         10.77389        0.10683        3.23590
H         10.60295        1.87406        3.10612
H         11.95316        1.04801        2.29173
H          7.39534        2.86458        0.16285
H          6.90115        1.88516       -1.23673
H          8.61506        2.02970       -0.82690
H          9.92801       -0.57251       -0.43541
H         10.27060       -1.37933        1.11342
H         11.53781       -0.43358        0.29798
