50
POLY_PS3.gamout	Energy:    -928.9433571
C          0.67239       -0.27620        0.23617
C          1.01973       -0.98185       -0.92782
C          0.96966       -0.37612       -2.18357
C          0.57176        0.95867       -2.30462
C          0.22810        1.67631       -1.15817
C          0.27797        1.06279        0.09755
C          0.75942       -0.93954        1.59659
C         -0.18146       -2.14230        1.81786
H         -0.07577       -2.83989        0.96992
C         -1.68753       -1.82604        1.99776
H          0.17376       -2.69767        2.70302
H         -2.01163       -1.23672        1.12290
C         -1.96391       -0.98741        3.24137
C         -2.49767       -3.14785        2.00638
H         -2.21798       -3.72231        2.90646
H         -2.16672       -3.76488        1.15352
C         -4.03752       -3.02562        1.97582
C         -4.61220       -2.52715        0.65560
H         -4.32712       -2.29614        2.75079
C         -4.69278       -4.36853        2.35383
H          0.58800       -0.18721        2.38275
H          1.79252       -1.29911        1.74399
C         -1.61649       -1.45043        4.52190
C         -2.58605        0.26700        3.15047
H         -1.13271       -2.42407        4.63710
C         -1.87874       -0.69142        5.66277
C         -2.85233        1.03337        4.29104
H         -2.86756        0.65236        2.16685
C         -2.49834        0.55644        5.55334
H         -3.33725        2.00744        4.18855
H         -1.59685       -1.07739        6.64539
H         -2.70248        1.15071        6.44695
H          0.01223        1.63694        0.98914
H         -0.08120        2.72127       -1.23791
H          0.53525        1.43508       -3.28691
H          1.24722       -0.94746       -3.07260
H          1.34595       -2.02279       -0.84864
C         -4.28620       -3.12823       -0.57069
C         -5.56742       -1.50075        0.64303
H         -3.55238       -3.93731       -0.60436
C         -4.89262       -2.72073       -1.75955
C         -6.18065       -1.08998       -0.54378
H         -5.83998       -1.01744        1.58503
C         -5.84436       -1.69910       -1.75265
H         -6.92205       -0.28852       -0.51884
H         -4.62032       -3.20658       -2.69924
H         -6.31856       -1.38212       -2.68377
H         -4.35751       -4.70181        3.34859
H         -4.44213       -5.15766        1.62520
H         -5.78916       -4.27676        2.37681
