32
POLY_PDMS3.gamout	Energy:   -1334.1306208
C         -0.81971       -0.33391       -0.48280
Si        -0.17087        0.50069       -2.03801
O          1.34318        1.11882       -1.73354
H         -1.08886        1.62729       -2.40959
C         -0.06227       -0.70170       -3.47946
H         -0.88350        0.38158        0.35377
H         -0.16249       -1.16233       -0.17112
H         -1.83031       -0.74410       -0.64923
H         -1.05450       -1.11693       -3.72530
H          0.61233       -1.54310       -3.25006
H          0.32372       -0.19863       -4.38173
Si         2.46542        2.33250       -1.55355
C          1.99285        3.41253       -0.09535
C          2.60398        3.29396       -3.15706
O          3.93520        1.63868       -1.24799
H          1.65502        3.79477       -3.41261
H          2.86491        2.61981       -3.99016
H          3.38887        4.06550       -3.09328
H          1.91265        2.81352        0.82726
H          1.02236        3.91065       -0.25867
H          2.74998        4.19517        0.07718
Si         4.96805        0.41565       -0.79630
C          5.01877       -0.84602       -2.18790
C          4.47777       -0.32873        0.84894
O          6.47566        1.09736       -0.54762
H          5.32666       -0.37516       -3.13723
H          4.02627       -1.29814       -2.35077
H          5.73370       -1.65660       -1.97005
H          3.48056       -0.79660        0.80307
H          4.45813        0.44510        1.63416
H          5.20022       -1.10088        1.16200
H          6.73301        1.76903       -1.19021
