86
POLY_PVAC7.gamout	Energy:   -2143.9603879
C          5.60076        0.66858        1.34338
C          4.10998        0.71749        1.72565
C          3.16994        0.43489        0.54241
C          1.68303        0.27490        0.89883
C          0.79232        0.08812       -0.34047
C         -0.71969        0.11196       -0.06317
C         -1.56088       -0.29863       -1.28428
C         -3.06502       -0.45687       -1.01324
C         -3.89069       -0.68003       -2.28533
C         -5.39160       -0.71093       -2.04048
H          5.82072        1.48760        0.64202
C          6.57160        0.77212        2.53194
H          5.78929       -0.27378        0.80791
H          3.93380       -0.03680        2.50689
O          3.77228        1.94645        2.43314
H          3.25744        1.25280       -0.18769
H          3.51878       -0.48338        0.04758
O          1.45272       -0.75963        1.89850
H          1.34815        1.17475        1.43608
O         -1.15797        1.37814        0.51130
O         -3.34118       -1.45093        0.01337
H         -3.42512        0.46309       -0.52579
H         -3.67126        0.15567       -2.97045
H         -3.57461       -1.60405       -2.79140
O         -6.02404       -0.78735       -3.32202
H         -5.70064       -1.57347       -1.42839
H         -5.74025        0.19416       -1.51369
C         -7.37181       -0.80587       -3.33090
O         -8.04230       -0.75490       -2.32985
C         -7.89602       -0.89883       -4.74080
H         -7.53863       -1.82844       -5.21064
H         -7.50887       -0.06190       -5.34210
H         -8.99214       -0.88167       -4.72880
C         -3.07175       -2.76031       -0.17758
C         -1.07255        2.53836       -0.17189
C          1.75892       -2.05378        1.66786
C          3.84881        3.15512        1.83852
C         -3.46687       -3.55772        1.04014
O          2.23473       -2.47918        0.64339
C          1.41854       -2.89432        2.87365
O         -0.63819        2.64962       -1.29314
C         -1.60329        3.67937        0.66094
O          4.16593        3.34117        0.68851
C          3.48592        4.24388        2.81883
H         -1.04616        3.75274        1.60728
H         -2.65790        3.49873        0.92072
H         -1.51075        4.61317        0.09433
H          4.18941        4.23536        3.66595
H          2.48135        4.06490        3.23139
H          3.52080        5.21538        2.31217
H          0.33948       -2.83077        3.08351
H          1.94150       -2.51417        3.76417
H          1.70205       -3.93548        2.68113
H         -4.53880       -3.42129        1.24955
H         -2.91741       -3.19623        1.92297
H         -3.24688       -4.61738        0.86652
H         -1.16233       -1.25015       -1.66592
H         -1.43060        0.45188       -2.07810
O         -2.58289       -3.22456       -1.17862
H          1.03721       -0.87239       -0.81736
H          1.03664        0.88165       -1.06194
H         -0.93470       -0.58402        0.76095
O          6.45101       -0.35269        3.44612
H          6.23970        1.60454        3.16896
C          8.02603        1.03005        2.10772
H          8.05455        2.02051        1.62256
H          8.33491        0.29299        1.35325
C          9.05776        1.02046        3.23676
H          9.18986        0.00328        3.63375
C          8.76526        1.96848        4.39100
O         10.30383        1.39673        2.60652
H          7.85472        1.65573        4.92417
H          8.63006        3.00431        4.03765
H          9.59435        1.94832        5.11236
C         11.43115        0.80182        3.04499
C          6.85167       -1.59278        3.08856
O          7.24055       -1.89490        1.98740
C          6.75213       -2.53387        4.26030
H          5.70551       -2.60838        4.59440
H          7.33710       -2.14666        5.10784
H          7.12161       -3.52139        3.96247
O         11.46057       -0.00911        3.93791
C         12.62711        1.28055        2.26185
H         12.66245        2.38017        2.25071
H         12.53821        0.94654        1.21565
H         13.54337        0.87160        2.70358
