72
POLY_PPO7.gamout	Energy:   -1351.4284367
C          0.22175       -0.04035       -0.40402
C          1.23376       -1.16328       -0.60284
H          1.19205       -1.46474       -1.67029
C          0.93741       -2.37691        0.27247
O          2.49444       -0.57852       -0.32555
C          3.61568       -1.27173       -0.81016
H         -0.09090       -2.72142        0.08821
H          1.03413       -2.10862        1.33750
H          1.62120       -3.21246        0.06037
H          3.51648       -1.48204       -1.89598
H          3.76027       -2.24273       -0.29994
C          4.85868       -0.42094       -0.57444
H          4.93303       -0.23043        0.51609
C          4.79836        0.91166       -1.31438
O          5.94411       -1.23103       -0.99039
H          3.88154        1.44856       -1.02981
H          4.78415        0.73881       -2.40301
H          5.65986        1.55269       -1.07475
C          7.20282       -0.89067       -0.46993
H          7.18302       -0.85539        0.63967
H          7.54749        0.09981       -0.82266
C          8.21712       -1.93513       -0.92011
H          8.22504       -1.93998       -2.02989
C          7.87492       -3.33325       -0.41487
O          9.46408       -1.46842       -0.43796
H          6.85580       -3.60019       -0.73119
H          7.92120       -3.35870        0.68630
H          8.56694       -4.09192       -0.80995
C         10.60309       -1.99442       -1.06784
O         -1.04596       -0.50771       -0.78320
H          0.54619        0.82629       -1.00989
H          0.23079        0.27863        0.65951
H         10.54768       -1.86675       -2.16931
H         10.72753       -3.07514       -0.86813
C         11.83272       -1.26599       -0.54224
H         11.87553       -1.42351        0.55627
C         11.78249        0.23088       -0.83040
O         12.92806       -1.91628       -1.15760
H         10.84840        0.64908       -0.42763
H         11.80834        0.40905       -1.91838
H         12.62469        0.76671       -0.36897
C         14.19439       -1.64017       -0.61831
C         -2.13863        0.34159       -0.48615
C         -2.22955        1.54549       -1.41901
H         -2.05713        0.69987        0.56141
C         -3.36768       -0.55245       -0.58034
H         -3.22233       -1.41692        0.09492
H         -3.44413       -0.95231       -1.61361
O         -4.50076        0.20069       -0.24177
H         -2.25449        1.21011       -2.46908
H         -1.37492        2.22629       -1.29186
H         -3.15104        2.10630       -1.20609
H         14.20617       -1.78729        0.48245
H         14.51649       -0.60065       -0.81472
C         15.20584       -2.57680       -1.26309
H         15.12101       -2.43587       -2.36111
C         14.93808       -4.03935       -0.93122
O         16.47231       -2.13865       -0.79705
H         13.92230       -4.31977       -1.24787
H         15.03102       -4.20899        0.15440
H         15.65322       -4.70077       -1.44764
C         -5.75286       -0.43710       -0.43870
C         -6.05080       -1.46326        0.65523
H         -5.73604       -0.95827       -1.41986
C         -6.79367        0.66932       -0.48500
H         -6.55037        1.38835       -1.28118
H         -6.81182        1.21432        0.47280
H         -7.79911        0.26176       -0.67311
H         -6.04152       -0.97780        1.64495
H         -5.31229       -2.27929        0.66613
H         -7.04214       -1.91895        0.50021
H         17.15072       -2.70374       -1.18743
