107
POLY_PBMA5.gamout	Energy:   -2120.5787258
C         -3.20848       -0.63791       -1.34864
C         -4.72880       -0.78470       -1.45702
H         -4.93619       -1.74763       -1.95458
H         -5.11145        0.00053       -2.12721
C         -5.56500       -0.71235       -0.14986
C         -5.02886       -1.69820        0.87513
C         -7.06134       -0.87219       -0.47348
C         -8.07761       -0.51999        0.64954
O         -3.95527       -1.58178        1.42056
O         -5.85322       -2.73897        1.10775
C         -5.41830       -3.71070        2.07290
H         -4.87257       -3.19576        2.87844
H         -4.70116       -4.39497        1.58382
C         -6.62807       -4.45855        2.60311
H         -7.16160       -4.93589        1.76090
H         -7.32869       -3.73501        3.05445
C         -6.22709       -5.52032        3.63222
H         -5.63180       -5.04048        4.43007
H         -5.55094       -6.25489        3.15649
C         -7.41238       -6.25260        4.26060
H         -8.03567       -6.74700        3.49564
H         -8.05842       -5.55853        4.82246
H         -7.07425       -7.03025        4.96241
C         -8.03273        0.97881        0.91049
H         -7.73867       -0.99160        1.58428
C         -9.47768       -1.06734        0.30052
H         -9.35663       -2.11307       -0.03110
H         -9.86937       -0.51255       -0.56499
C        -10.56892       -1.02736        1.41316
O         -7.09116        1.55081        1.41210
O         -9.14012        1.61995        0.49356
C         -9.18483        3.04402        0.67938
H         -8.55561        3.51764       -0.09605
H         -8.73569        3.29051        1.65430
C        -10.62524        3.51192        0.58407
H        -11.21964        3.00364        1.36249
H        -11.04373        3.20009       -0.39048
C        -10.73690        5.03175        0.73316
H        -10.13676        5.52173       -0.05630
H        -10.27806        5.33937        1.69061
C        -12.17282        5.55296        0.67501
H        -12.77550        5.16235        1.51094
H        -12.67311        5.26275       -0.26510
H        -12.20026        6.65174        0.73796
H        -10.51587       -0.05289        1.92291
C        -10.22758       -2.06635        2.47095
C        -11.97701       -1.18152        0.80699
H        -12.08417       -2.19190        0.38617
H        -12.05636       -0.48281       -0.04233
C        -13.18264       -0.93970        1.75740
O         -9.27507       -1.99687        3.21541
O        -11.07415       -3.11177        2.47480
C        -10.81741       -4.15812        3.42252
H        -10.75926       -3.72420        4.43491
H         -9.83412       -4.60606        3.20795
C        -11.92772       -5.18516        3.30701
H        -11.97185       -5.54649        2.26395
H        -12.89747       -4.69554        3.50857
C        -11.73338       -6.36858        4.25991
H        -11.68057       -5.99467        5.29858
H        -10.75437       -6.83915        4.05981
C        -12.83505       -7.42241        4.15058
H        -12.89409       -7.83918        3.13082
H        -13.82524       -7.00140        4.39429
H        -12.65164       -8.25982        4.84104
C        -13.34102        0.54984        2.01264
H        -12.92770       -1.36566        2.74109
C        -14.44996       -1.61887        1.23938
H        -14.29818       -2.70813        1.20721
H        -14.70791       -1.27567        0.22549
H        -15.31043       -1.40717        1.88896
O        -12.54810        1.21569        2.64313
O        -14.44469        1.06621        1.45041
C        -14.70101        2.46501        1.65170
H        -14.02872        3.04740        0.99953
H        -14.45470        2.73076        2.69250
C        -16.15613        2.74061        1.32253
H        -16.79387        2.09157        1.94937
H        -16.35494        2.45385        0.27450
C        -16.53643        4.20842        1.54221
H        -15.88444        4.85219        0.92420
H        -16.32396        4.48264        2.59159
C        -18.00003        4.51227        1.22224
H        -18.68393        3.91374        1.84764
H        -18.23769        4.29242        0.16767
H        -18.23102        5.57363        1.40024
H         -2.76826       -0.82343       -2.34328
H         -2.76261       -1.39014       -0.68207
C         -2.64956        0.69794       -0.90000
H         -5.39694        0.27583        0.30124
H         -7.24670       -1.91496       -0.76868
H         -7.28766       -0.25384       -1.35860
O         -1.48193        0.89895       -0.67102
O         -3.59336        1.65296       -0.81851
C         -3.15114        2.94801       -0.39462
H         -2.43722        3.34264       -1.13905
H         -2.59960        2.84759        0.55473
C         -4.36428        3.84628       -0.25418
H         -5.04394        3.43058        0.50940
H         -4.92297        3.84088       -1.20764
C         -3.97184        5.28085        0.11152
H         -3.28281        5.67885       -0.65597
H         -3.39693        5.27181        1.05544
C         -5.16738        6.22338        0.25407
H         -5.86366        5.87881        1.03711
H         -5.73750        6.29771       -0.68799
H         -4.84041        7.23928        0.52361
