20
POLY_PTFE3.gamout	Energy:   -1426.2658768
C         -0.12492       -0.07967       -0.07437
C         -1.15772       -1.05203       -0.69530
F          0.25179        0.76199       -1.05921
F         -0.77797        0.62437        0.87314
C          1.14551       -0.73307        0.55810
F         -0.60414       -1.76158       -1.69460
H         -1.98420       -0.43398       -1.09219
F         -1.63193       -1.89543        0.23878
F          1.76717       -1.43619       -0.40631
F          0.73841       -1.57436        1.52645
C          2.17206        0.27472        1.18309
F          1.54840        0.97700        2.14647
F          2.57925        1.11601        0.21503
C          3.44169       -0.37695        1.81663
F          4.09450       -1.08032        0.86942
F          3.06393       -1.21775        2.80097
C          4.47601        0.59047        2.43956
F          3.92301        1.29916        3.43911
F          4.95341        1.43342        1.50741
H          5.29944       -0.03178        2.83564
