65
POLY_SPP7.gamout	Energy:    -825.5599301
C         -0.41077       -0.13986        1.05071
C          1.05420        0.07954        1.45935
C         -0.67411       -1.42638        0.26494
H         -1.01952       -0.15157        1.97193
H         -0.77595        0.72612        0.47108
C          2.09206        0.20768        0.32213
H          1.36228       -0.75732        2.11338
H          1.11255        0.98668        2.08923
H         -0.32429       -2.31459        0.81894
H         -0.16493       -1.42696       -0.71297
H         -1.75044       -1.55939        0.07078
C          1.78063        1.38903       -0.60414
H          2.04085       -0.71807       -0.27907
C          3.51027        0.30148        0.92748
H          3.66059       -0.57095        1.59084
H          3.54010        1.18649        1.59080
C          4.71549        0.38455       -0.03877
H          1.83202        2.34672       -0.05590
H          0.77336        1.31189       -1.04103
H          2.49045        1.44679       -1.44287
H          4.59071        1.29367       -0.65343
C          4.77521       -0.81965       -0.98644
C          6.02100        0.54272        0.77652
H          6.13404       -0.35299        1.41607
H          5.89054        1.38953        1.47634
C          7.34363        0.75569        0.00343
H          3.86282       -0.90605       -1.59552
H          4.89020       -1.76270       -0.42265
H          5.62157       -0.74617       -1.68564
C          7.30665        2.02388       -0.85615
H          7.48027       -0.10739       -0.67155
C          8.53275        0.76663        0.99330
H          8.44667       -0.12487        1.64251
H          8.41356        1.63555        1.66705
C          9.96410        0.79785        0.40718
H         10.04367        1.68746       -0.24221
C         10.25040       -0.43640       -0.45523
C         10.99391        0.95863        1.55143
H         10.88832        0.09410        2.23288
H         10.70639        1.84455        2.14823
C         12.48734        1.09839        1.17444
H          7.17012        2.92403       -0.23085
H          6.48473        1.99846       -1.58716
H          8.23681        2.15495       -1.42943
H          9.53887       -0.52052       -1.29024
H         10.17703       -1.36383        0.13999
H         11.25706       -0.40189       -0.89804
C         12.73324        2.30993        0.26859
H         12.77966        0.19234        0.61457
C         13.35080        1.15165        2.45602
H         13.09346        0.27817        3.08465
H         13.04869        2.03932        3.04263
C         14.88364        1.18120        2.29057
H         15.15183        2.07819        1.70236
C         15.41939       -0.04425        1.54363
C         15.57227        1.31481        3.65499
H         15.38051        0.43144        4.28980
H         15.21849        2.20208        4.20502
H         16.66405        1.40764        3.53922
H         12.42902        3.24819        0.76589
H         12.16843        2.23443       -0.67272
H         13.79498        2.40818       -0.00276
H         15.03094       -0.10916        0.51574
H         15.14324       -0.97803        2.06492
H         16.51871       -0.01516        1.47684
