62
POLY_IPB5.gamout	Energy:    -786.2966872
C         -0.07374       -0.21497        0.03267
C          1.42195        0.16761       -0.04921
C         -0.93459        1.06999        0.07087
H         -0.32562       -0.74721       -0.90122
C         -0.39300       -1.19133        1.18296
C         -0.13951       -0.66653        2.59921
H          1.68510        0.77335        0.83687
H          1.55150        0.85259       -0.90595
C          2.45739       -0.97505       -0.16364
C          2.18985       -1.92615       -1.34786
H          2.36755       -1.58814        0.75026
C          3.88282       -0.37842       -0.17330
H          3.98615        0.27527        0.71128
H          3.98458        0.30134       -1.03827
C          5.06851       -1.36313       -0.20606
C          2.23611       -1.28977       -2.73922
H          1.20483       -2.40143       -1.20521
H          2.91550       -2.75567       -1.31088
H          3.22021       -0.84570       -2.96096
H          1.48373       -0.49306       -2.85701
H          2.03610       -2.04335       -3.51724
H          4.99983       -1.94297       -1.14421
C          5.05523       -2.39914        0.93510
C          6.39792       -0.59753       -0.26426
H          6.53733        0.05729        0.61229
H          6.44798        0.04325       -1.15943
H          7.25449       -1.29020       -0.30352
H          4.16641       -3.04381        0.82829
C          5.08993       -1.83100        2.35607
H          5.92139       -3.06964        0.79481
H          4.21271       -1.19972        2.57304
H          5.98779       -1.21675        2.53445
H          5.09815       -2.64293        3.09998
H         -0.74443        0.22572        2.82820
H          0.91634       -0.39361        2.75872
H         -0.39398       -1.43377        3.34732
H          0.18780       -2.11752        1.03683
H         -1.44822       -1.50132        1.10150
H         -0.64499        1.69779       -0.79071
H         -0.65190        1.66365        0.95832
C         -2.47097        0.91042        0.07848
H         -2.73931        0.35998        0.99735
C         -3.00437        0.06892       -1.09621
C         -3.13422        2.30047        0.17736
H         -2.58170       -0.94756       -1.02856
C         -2.73402        0.62880       -2.49431
H         -4.09164       -0.06580       -0.97090
H         -1.65669        0.71222       -2.71111
H         -3.17376        1.62991       -2.63227
H         -3.16969       -0.02643       -3.26508
H         -2.82272        2.91805       -0.68337
H         -2.71667        2.81480        1.06075
C         -4.66814        2.33467        0.25713
C         -5.30243        1.52658        1.39519
H         -5.10305        1.99704       -0.69933
H         -4.97439        3.39106        0.36018
C         -4.86021        1.94769        2.79678
H         -5.09672        0.45032        1.25412
H         -6.39911        1.62611        1.31849
H         -5.05293        3.01995        2.97457
H         -3.78462        1.77615        2.96595
H         -5.40339        1.38211        3.57045
