10
PR-1.gamout	Energy:    -267.4744318
O          2.04029       -1.76022        1.50373
C          1.35578       -2.07094        2.50641
O          0.33287       -2.78366        2.58222
C          1.88849       -1.51783        3.89000
C          2.74232       -0.25827        3.76701
H          1.02190       -1.37098        4.55957
H          2.48739       -2.33137        4.34752
H          3.27657        0.00502        4.70129
H          3.46949       -0.41442        2.95476
H          2.12920        0.61417        3.47639
