14
PRA+1.gamout	Energy:    -174.6024121
C          1.01996        0.04552       -0.02948
C          2.55230        0.06696       -0.04590
C          3.08132        1.25107       -0.84086
N          4.60309        1.26949       -0.84870
H          0.65860       -0.81957        0.54480
H          0.60712       -0.03219       -1.04769
H          0.60949        0.95353        0.43997
H          2.93602       -0.87146       -0.48636
H          2.93834        0.11671        0.98867
H          2.76629        2.21565       -0.41470
H          2.77106        1.21815       -1.89612
H          4.98204        1.33342        0.10827
H          4.98276        2.06338       -1.38414
H          4.98511        0.40644       -1.26427
