17
PROLINE.gamout	Energy:    -400.6315338
C          1.62912        1.48854       -0.08887
C          2.21657        1.49329        1.32067
O          3.53607        1.75984        1.31114
O          1.61033        1.24941        2.33564
C          0.11766        1.84788       -0.09900
N          1.76005        0.10962       -0.60879
C          0.41500       -0.47518       -0.59751
C         -0.54335        0.69272       -0.87065
H          2.23681        2.17337       -0.69880
H          3.84284        1.67061        2.23012
H         -0.06503        2.83146       -0.55512
H         -0.25094        1.87690        0.93663
H          2.12544        0.13657       -1.55799
H          0.21267       -0.91058        0.39730
H          0.34722       -1.29330       -1.33064
H         -0.57541        0.91003       -1.95304
H         -1.57485        0.49728       -0.54043
