11
PROPIONIC_ACID.gamout	Energy:    -268.0560952
C          0.48552        0.09989       -0.00029
C         -0.73349       -0.79612       -0.00079
C         -2.04644       -0.02346        0.00106
O          0.47551        1.30569       -0.00083
O          1.63010       -0.61646        0.00069
H         -0.64756       -1.46135       -0.87788
H         -0.64652       -1.46395        0.87419
H         -2.12396        0.62302        0.88822
H         -2.12494        0.62555       -0.88415
H         -2.90185       -0.71547        0.00056
H          2.35906        0.02747        0.00020
