9
PROPIONITRILE.gamout	Energy:    -171.8297010
N          2.50924       -0.72499        0.00000
C         -0.11347       -0.61406       -0.00000
C         -0.64594        0.82659        0.00000
C          1.35099       -0.68709       -0.00000
H         -0.47995       -1.16418        0.88348
H         -0.47997       -1.16419       -0.88347
H         -1.74619        0.81708        0.00001
H         -0.30670        1.37613       -0.89111
H         -0.30669        1.37614        0.89110
