8
PROPARGYL_ALCOHOL.gamout	Energy:    -191.6038207
C          3.25309        1.77265        0.92941
C          1.96830        1.07063        0.89945
C          0.89518        0.51133        0.87341
O          4.31607        0.84744        1.04143
H          3.23781        2.48657        1.78050
H          3.33527        2.38342        0.00510
H         -0.05348        0.00867        0.85053
H          5.14088        1.35090        1.05131
