27
PROPMPYR+1.gamout	Energy:    -369.6825030
N          0.67397       -0.05826       -0.12448
C         -0.28612        0.32467       -1.26703
C          1.49282        1.21464        0.15669
C          1.16151        2.18322       -0.97358
H          2.55283        0.94695        0.23691
H          1.16175        1.60460        1.12785
C         -0.29604        1.84663       -1.29754
H         -1.25709       -0.15342       -1.08728
H          0.13703       -0.08097       -2.19530
H         -0.97814        2.25997       -0.53666
H         -0.62706        2.22268       -2.27531
H          1.80590        2.00208       -1.84920
H          1.31497        3.22534       -0.66101
C         -0.12303       -0.43838        1.08447
H         -0.85069        0.35548        1.28965
H          0.54449       -0.55448        1.94534
H         -0.64515       -1.38260        0.88700
C          1.56240       -1.20874       -0.57450
C          2.48394       -1.82018        0.47983
H          2.14928       -0.81219       -1.41612
H          0.88076       -1.97331       -0.97636
C          3.38650       -2.88386       -0.15588
H          2.79744       -3.70200       -0.60039
H          4.04668       -3.32549        0.60409
H          4.02559       -2.45643       -0.94525
H          1.89482       -2.28212        1.28837
H          3.11052       -1.04122        0.94660
