25
PROPYLPARABEN.gamout	Energy:    -613.1835863
C         -1.08196       -0.46766        0.06063
C         -0.05280       -1.29728       -0.40808
C         -2.41577       -0.82836       -0.11427
C         -0.38852       -2.49841       -1.05653
C          1.38695       -0.96356       -0.24773
C         -2.74069       -2.03007       -0.76276
C         -1.71523       -2.86566       -1.23423
O         -4.01798       -2.43097       -0.95944
O          2.29967       -1.65634       -0.64142
O          1.58088        0.20695        0.39359
C          2.94138        0.60616        0.59910
C          2.94282        1.93581        1.33158
C          4.35964        2.44646        1.59906
H         -0.82905        0.46506        0.56561
H         -3.21474       -0.17698        0.25323
H          0.42226       -3.13480       -1.41527
H         -1.98778       -3.79594       -1.73543
H         -4.62652       -1.77550       -0.59253
H          3.46466       -0.17796        1.17284
H          3.44982        0.67642       -0.37762
H          2.37907        2.67163        0.73231
H          2.39331        1.81915        2.28162
H          4.91825        2.59477        0.65987
H          4.93376        1.73745        2.21876
H          4.33993        3.41050        2.12981
