13
PROPYLENE_CARBONATE.gamout	Energy:    -381.2369397
C          2.88547        3.26027        1.56101
C          3.00730        1.78323        1.11171
O          1.79507        1.19852        1.60325
C          4.21304        1.05398        1.67305
O          1.65632        3.31214        2.27206
C          1.04405        2.10082        2.27977
O          0.00239        1.86930        2.80359
H          3.70532        3.56037        2.23351
H          2.84694        3.96237        0.71406
H          2.98815        1.70045        0.01264
H          4.23563        1.13019        2.77204
H          4.18562       -0.01041        1.39791
H          5.14133        1.49264        1.27270
