19
PROPIONIC_ANHYDRIDE.gamout	Energy:    -459.7620672
O          4.49764        1.29376        1.57873
C          3.26718        1.93288        1.51366
C          5.66831        2.01915        1.75470
C          0.78149        1.61046        1.86968
C          2.18213        1.04205        2.06211
O          3.13189        3.02235        1.04248
C          8.16877        1.97653        1.36089
C          6.81992        1.33038        1.06940
O          5.71347        3.02269        2.40102
H          0.68628        2.59393        2.35361
H          0.55073        1.74661        0.80186
H          0.02805        0.93543        2.30151
H          2.29671        0.04857        1.59528
H          2.41509        0.88293        3.13084
H          8.17384        3.03209        1.05050
H          8.39921        1.94980        2.43699
H          8.97217        1.45192        0.82323
H          6.79414        0.26636        1.36162
H          6.59152        1.33383       -0.01206
