23
PROPYL_PHENYL_KETONE.gamout	Energy:    -462.8959117
C          0.70692       -0.15146        0.00095
C          1.70606       -1.13965        0.00118
C          3.05390       -0.78688        0.00049
C          3.42438        0.56257       -0.00051
C          2.43995        1.55415       -0.00060
C          1.08923        1.20027        0.00007
C         -0.72983       -0.60198       -0.00016
O         -1.00362       -1.78742       -0.00169
C         -1.83330        0.45036        0.00064
C         -3.24376       -0.13755       -0.00026
C         -4.33654        0.93227        0.00036
H          1.39285       -2.18515        0.00194
H          3.82168       -1.56433        0.00072
H          4.48130        0.84047       -0.00122
H          2.72361        2.60897       -0.00113
H          0.33547        1.98912        0.00013
H         -1.68424        1.10669        0.87845
H         -1.68389        1.10843       -0.87580
H         -3.35549       -0.79727       -0.87664
H         -3.35594       -0.79877        0.87494
H         -4.26827        1.58157        0.89012
H         -4.26785        1.58301       -0.88832
H         -5.33847        0.47556       -0.00027
