9
PROPYLENE.gamout	Energy:    -117.7357175
C          0.66895        0.99403        0.86558
C          1.76503        1.96743        1.18400
C          3.07231        1.69150        1.18637
H         -0.03677        0.89595        1.70972
H          0.07362        1.33460       -0.00030
H          1.06663       -0.00685        0.63460
H          1.44369        2.98814        1.43278
H          3.81772        2.45421        1.42847
H          3.44733        0.69030        0.94567
