11
PROPYLENEIMINE.gamout	Energy:    -172.9968148
C         -1.64687        0.79363       -1.95421
N         -0.74794        0.74070       -0.79615
C         -2.04431        1.41200       -0.66221
C         -2.02266        2.90376       -0.43718
H         -1.30803        1.42972       -2.78098
H         -2.15943       -0.12147       -2.27533
H         -0.77538       -0.18542       -0.36764
H         -2.82238        0.87759       -0.09811
H         -1.84425        3.13915        0.62524
H         -2.98136        3.36377       -0.73019
H         -1.21618        3.37038       -1.02356
