16
PROTOCATECHUALDEHYDE.gamout	Energy:    -495.3836203
O          2.58585       -1.61317        0.00043
O          3.20432        0.95733        0.00061
O         -3.17117        0.20938       -0.00201
C         -0.80763       -0.12976       -0.00109
C          1.55563       -0.73171       -0.00001
C          0.21286       -1.09790       -0.00060
C          1.89077        0.64496        0.00008
C         -0.46916        1.22836       -0.00099
C          0.87101        1.60498       -0.00041
C         -2.22387       -0.54537       -0.00162
H         -0.05142       -2.16124       -0.00070
H         -1.26822        1.97132       -0.00132
H          1.14629        2.66455       -0.00030
H         -2.37941       -1.65773       -0.00166
H          2.23826       -2.51447        0.00037
H          3.30527        1.91858        0.00065
