12
PY+1.gamout	Energy:    -248.3222439
N          0.22350        0.72886        0.79591
C          0.61322        1.85803        1.42602
C          0.13517        3.08240        0.98669
C         -0.74256        3.11681       -0.10275
C         -0.62142        0.72414       -0.25768
C         -1.12448        1.92573       -0.73106
H          1.29963        1.74319        2.26662
H          0.44839        3.99589        1.49381
H         -1.12916        4.07314       -0.46231
H         -1.80715        1.92538       -1.58178
H         -0.86788       -0.24728       -0.68900
H          0.58535       -0.16549        1.13252
