10
PYRAZINE.gamout	Energy:    -263.9673809
C          0.98401        1.04753        1.82727
C          0.96044        0.32833        0.62573
N          2.12880        1.43324        2.39404
N          2.08161       -0.00863       -0.01454
C          3.24992        1.09631        1.75373
C          3.22633        0.37712        0.55226
H          0.05113        1.31438        2.33718
H          0.00877        0.02107        0.17697
H          4.20160        1.40351        2.20251
H          4.15922        0.11035        0.04237
