26
PYRENE.gamout	Energy:    -614.9447019
C          3.45903        3.81102        1.39333
C          4.73049        3.40852        1.90559
C          5.69077        4.39406        2.29478
C          5.04654        2.01943        2.03082
C          2.49903        2.82575        1.00444
C          3.14323        5.19970        1.26846
C          5.34361        5.78347        2.15713
C          6.93489        3.97386        2.79634
C          4.06006        1.05199        1.63132
C          6.30358        1.64766        2.53766
C          2.84616        1.43631        1.14232
C          1.25483        3.24580        0.50327
C          4.12961        6.16716        1.66806
C          1.88632        5.57177        0.76198
C          7.23441        2.61607        2.91521
C          0.95524        4.60356        0.38461
H          6.08016        6.53408        2.45534
H          7.67057        4.72517        3.09440
H          4.30476       -0.00891        1.72832
H          6.54717        0.58666        2.63422
H          2.10944        0.68581        0.84432
H          0.51912        2.49453        0.20535
H          3.88468        7.22799        1.57104
H          1.64281        6.63277        0.66561
H          8.20669        2.30883        3.30728
H         -0.01713        4.91088       -0.00711
