11
PYRIDINE.gamout	Energy:    -247.9505071
C          3.12061        3.38078        0.18851
C          3.83562        2.18224        0.16192
C          1.72697        3.32752        0.13058
C          3.12052        0.98320        0.07878
C          1.11268        2.07398        0.04851
N          1.78745        0.92161        0.02290
H          3.64000        4.34040        0.25307
H          4.92695        2.17264        0.20467
H          1.12434        4.23796        0.14827
H          3.65495        0.02589        0.05628
H          0.01957        2.00107        0.00147
