10
PYRIDAZINE.gamout	Energy:    -263.9360309
N         -2.25247       -0.97673       -0.32835
N         -1.99923        0.32052       -0.42912
C          0.05015       -1.41474        0.22876
C          0.31519       -0.05782        0.12345
C         -1.26905       -1.81992       -0.01145
C         -0.76284        0.77126       -0.21268
H          0.82442       -2.14148        0.48596
H          1.31224        0.35572        0.29233
H         -1.56006       -2.87307        0.05181
H         -0.63742        1.85348       -0.31540
