15
PYROGALLOL.gamout	Energy:    -457.3357605
O         -0.03969       -2.10946        0.00019
O         -2.38533       -0.76586        0.00031
O          2.33151       -0.80059        0.00010
C         -0.05161       -0.74222        0.00021
C         -1.24324       -0.00879        0.00030
C          1.18433       -0.07984        0.00019
C         -1.21114        1.38865        0.00038
C          1.21994        1.31922        0.00021
C          0.02592        2.04256        0.00031
H         -2.14635        1.95568        0.00039
H          2.19104        1.81649        0.00020
H          0.05669        3.13469        0.00039
H         -0.95813       -2.41821        0.00029
H         -3.16218       -0.19243        0.00041
H          2.08851       -1.73946        0.00013
