10
PYRROLE.gamout	Energy:    -209.8889984
C          2.89707        0.90389        0.12791
C          1.47090        0.87659        0.16486
C          3.28780        2.22040        0.28666
C          1.03916        2.17733        0.34462
N          2.15108        2.98007        0.41639
H          3.56393        0.05306       -0.00055
H          0.83122        0.00084        0.07021
H          4.27656        2.67423        0.31708
H          0.03665        2.59297        0.42653
H          2.13507        3.98294        0.54552
