14
PYRROLIDINE.gamout	Energy:    -212.2815196
C          2.70481        0.79441        1.05640
C          1.22735        0.79644        1.53483
C          3.21776        2.22052        1.40559
C          1.04081        2.20143        2.16635
N          2.04015        3.07670        1.55327
H          3.30469        0.01289        1.54844
H          2.76655        0.60879       -0.02807
H          0.53970        0.66174        0.68350
H          1.01248       -0.01258        2.25018
H          3.75980        2.19630        2.36862
H          3.91047        2.63329        0.65637
H          0.02771        2.61208        2.03717
H          1.23487        2.15294        3.25376
H          1.71174        3.34396        0.62348
