20
QUINALDINE.gamout	Energy:    -440.6546876
C         -1.59683       -1.41848        1.55937
C         -0.56317       -0.33604        1.73464
N         -1.17934       -2.61682        1.20974
C         -2.97967       -1.12633        1.77201
C         -2.08949       -3.61722        1.04313
C         -3.91519       -2.11858        1.60961
C         -3.49417       -3.42190        1.23271
C         -1.62287       -4.90403        0.66664
C         -4.38268       -4.51291        1.04035
C         -2.50687       -5.94732        0.48644
C         -3.89778       -5.75102        0.67436
H         -0.58122        0.07042        2.76036
H          0.43369       -0.74722        1.53054
H         -0.75093        0.50830        1.04948
H         -3.27827       -0.11587        2.06140
H         -4.97903       -1.92028        1.76626
H         -0.54740       -5.02696        0.52873
H         -5.45560       -4.35775        1.18640
H         -2.13715       -6.93412        0.19674
H         -4.58562       -6.58731        0.52765
