17
QUINOLINE.gamout	Energy:    -401.3912793
N         -1.18775       -1.39865       -0.00004
C         -2.32161       -0.73559        0.00027
C         -2.41295        0.68195        0.00015
C         -1.25076        1.41851       -0.00009
C         -0.00075        0.74621       -0.00016
C          1.25074        1.41844       -0.00008
C          2.42873        0.70284        0.00022
C          2.40602       -0.71525        0.00014
C          1.20660       -1.39402       -0.00003
C         -0.02557       -0.68707       -0.00024
H         -3.24266       -1.33181        0.00050
H         -3.39288        1.16390       -0.00001
H         -1.27420        2.51197       -0.00046
H          1.26599        2.51203       -0.00043
H          3.38752        1.22679        0.00041
H          3.34804       -1.26899       -0.00009
H          1.15973       -2.48415       -0.00038
