26
R-NICOTINE.gamout	Energy:    -498.2998296
N          1.72216       -0.56626        0.51796
N         -2.87685       -0.32164       -0.94699
C          0.89676       -0.14255       -0.61194
C          1.53700        1.20824       -1.06629
C          2.82635        1.34626       -0.22823
C          3.06644       -0.07355        0.27822
C         -0.57275       -0.04300       -0.25873
C          1.63403       -1.96945        0.84406
C         -1.00184        0.46249        0.97432
C         -1.56527       -0.42501       -1.17235
C         -2.36750        0.57262        1.22424
C         -3.26557        0.17127        0.22990
H          0.98732       -0.86762       -1.45265
H          0.85297        2.05303       -0.90284
H          1.75409        1.17407       -2.14455
H          3.67473        1.74249       -0.80476
H          2.65692        2.01957        0.62666
H          3.59747       -0.67756       -0.49704
H          3.67426       -0.11497        1.19715
H          2.24121       -2.18811        1.73621
H          1.98887       -2.62967        0.01808
H          0.59327       -2.24566        1.07184
H         -0.25837        0.74506        1.72323
H         -1.26847       -0.84429       -2.14234
H         -2.73735        0.96000        2.17593
H         -4.34604        0.24780        0.39957
