43
RANITIDINE.gamout	Energy:   -1349.9388095
S          0.34975        2.12010       -1.04499
O          2.65247        0.19104        0.61331
O         -5.50805       -1.82120        0.68708
O         -6.16799       -0.27914        2.06668
N          4.57444       -2.08813       -0.76264
N         -2.49201        0.77182       -0.59632
N         -3.43155       -1.34465       -0.80947
N         -5.39335       -0.68009        1.19972
C          4.41843       -1.50155        0.56379
C          3.99011       -0.07055        0.56259
C          2.48398        1.54254        0.61280
C          1.09091        2.04780        0.65751
C          4.68148        1.11084        0.52766
C          3.70666        2.15756        0.55737
C         -1.27456        2.90207       -0.70169
C         -2.28695        2.04510        0.06031
C          3.31642       -2.30093       -1.44727
C          5.38938       -3.28442       -0.73809
C         -3.42701       -0.14383       -0.19956
C         -4.36192        0.17429        0.79646
C         -2.59337       -1.73654       -1.91327
H          3.70678       -2.07783        1.20067
H          5.39696       -1.55368        1.06484
H          0.48234        1.38855        1.29446
H          1.07532        3.06505        1.07714
H          5.76397        1.21551        0.49728
H         -1.66377        3.15463       -1.70199
H         -1.11501        3.84960       -0.16362
H          3.88669        3.23081        0.55201
H         -1.96206        1.91385        1.11189
H         -3.23911        2.60003        0.09794
H          3.50314       -2.59811       -2.49139
H          2.68816       -3.09301       -0.97337
H          2.72744       -1.37314       -1.46468
H          4.93506       -4.12315       -0.15866
H          5.55338       -3.64325       -1.76624
H          6.37612       -3.06724       -0.29857
H         -1.65676        0.41104       -1.05377
H         -4.19504       -1.93848       -0.45595
H         -4.36856        1.12148        1.32060
H         -2.59227       -0.98330       -2.72232
H         -2.98439       -2.67533       -2.32709
H         -1.54148       -1.91853       -1.61720
