21
RDX.gamout	Energy:    -896.3226479
O          2.81182        0.41150       -0.99873
O         -1.76450        2.21594       -1.00928
O         -2.60481       -1.11440       -1.00757
O          2.27385       -1.69183       -1.00261
O          0.31924        2.82604       -1.00210
O         -1.04872       -2.62768       -1.00908
N          1.34212       -0.33610        0.50763
N         -0.38209        1.33811        0.50934
N         -0.97161       -0.99374        0.51234
N          2.19300       -0.55148       -0.59507
N         -0.62310        2.17626       -0.59825
N         -1.57753       -1.61512       -0.60018
C          0.99157        1.02711        0.86494
C          0.38613       -1.36914        0.86483
C         -1.38524        0.35183        0.86851
H          1.66312        1.71985        0.35223
H          1.09905        1.13755        1.95583
H          0.43046       -1.51908        1.95566
H          0.64783       -2.29788        0.35207
H         -1.53046        0.38948        1.96015
H         -2.32345        0.58569        0.35989
