29
RESVERATROL.gamout	Energy:    -765.3782352
O         -4.90853       -2.13754       -0.26646
O         -4.13147        2.52726        0.31340
O          6.29495       -0.30958        0.00624
C         -1.75530       -0.22128       -0.01094
C          2.12986        0.17363       -0.01540
C         -0.31099       -0.48858       -0.02685
C          0.68601        0.42487       -0.02753
C         -2.29208        1.06688        0.14440
C         -2.63909       -1.31164       -0.14879
C         -4.02299       -1.11453       -0.13584
C         -3.67692        1.25650        0.15547
C          2.70107       -1.10897        0.09260
C          3.01728        1.26627       -0.10456
C         -4.55136        0.17218        0.01655
C          4.08066       -1.29077        0.10208
C          4.39746        1.09815       -0.09719
C          4.94326       -0.18812        0.00420
H         -0.05033       -1.55171       -0.04254
H          0.42056        1.48667       -0.04014
H         -1.65802        1.94296        0.27581
H         -2.23764       -2.32207       -0.26889
H          2.05970       -1.98781        0.18196
H          2.60622        2.27648       -0.18218
H         -5.63592        0.30146        0.02735
H          4.49546       -2.29961        0.19084
H          5.07525        1.95045       -0.16702
H         -4.42427       -2.96854       -0.35711
H         -5.09747        2.52396        0.31580
H          6.53424       -1.24327        0.07440
