55
RICINOLEIC_ACID.gamout	Energy:    -930.7939037
C         -5.50088        4.13297       -0.33705
C          8.70744       -2.75228       -0.25910
C         -6.82209        4.77324        0.10865
C          7.51301       -1.96777        0.27312
C          6.16557       -2.58900       -0.09406
C          4.96058       -1.80660        0.44065
C          3.61014       -2.42955        0.06360
C          2.39306       -1.66753        0.60409
C          1.04697       -2.28537        0.20502
C         -0.17407       -1.54801        0.78482
C         -1.48136       -2.17025        0.37558
C         -4.09454        1.97672       -0.48711
C         -4.01994        0.46643       -0.21516
C         -5.40819        2.63134       -0.03752
C         -2.66509       -0.14174       -0.63419
C         -6.91491        6.27919       -0.16215
C         -2.52141       -1.58609       -0.23749
C         -8.24038        6.90093        0.28225
O         -5.10349       -0.22886       -0.82095
O          8.62947       -3.76332       -0.89905
O          9.92180       -2.22708        0.03940
H         -5.36583        4.30127       -1.42275
H         -4.65888        4.65920        0.15223
H         -7.66221        4.26052       -0.39725
H         -6.96853        4.58901        1.19003
H          7.58625       -0.93221       -0.11047
H          7.62055       -1.88667        1.37177
H          6.14142       -3.62563        0.28249
H          6.10463       -2.67546       -1.19215
H          4.99863       -0.76639        0.06424
H          5.03060       -1.72855        1.54250
H          3.57667       -3.47260        0.43036
H          3.53960       -2.49904       -1.03813
H          2.42867       -0.61955        0.25043
H          2.45605       -1.61359        1.70755
H          1.01811       -3.34222        0.53094
H          0.96491       -2.31055       -0.89692
H         -0.13584       -0.48650        0.48911
H         -0.09692       -1.56161        1.88987
H         -1.57424       -3.24027        0.60309
H         -3.94395        2.14969       -1.57208
H         -3.24005        2.46707        0.01384
H         -4.15528        0.29557        0.86797
H         -5.53654        2.46635        1.04885
H         -6.24762        2.10050       -0.51879
H         -1.84886        0.47117       -0.22061
H         -2.58834       -0.04674       -1.73765
H         -6.07915        6.79338        0.34790
H         -6.76571        6.46668       -1.24193
H         -3.39374       -2.20510       -0.47332
H         -8.40876        6.75831        1.36348
H         -9.09611        6.44734       -0.24643
H         -8.26312        7.98392        0.08319
H         -5.04792       -0.08594       -1.77718
H          9.82004       -1.41666        0.55786
