73
RUTIN.gamout	Energy:   -2247.6232073
O          0.73712        0.05461        1.71013
O          0.84780        2.89989        1.10098
O         -0.96527        3.74578       -0.11382
O          2.85721        2.27067        3.73700
O          4.61285        0.08441        3.00211
O          0.86757       -2.16612        1.17801
O          3.31795       -2.36752        2.49440
O          0.69957        6.06623       -0.62734
O          2.26866        4.69528       -2.48318
O          0.41147        2.78337       -3.37528
O         -2.06363       -2.26746       -0.88914
O         -1.17352       -2.38235        3.09258
O         -3.84270       -2.60987        3.54429
O         -6.68421       -2.55521       -0.31887
O          1.02083        0.19237       -4.38296
O          2.86794       -1.68925       -4.73890
C          0.99804        1.07717        2.64724
C          2.51478        1.29846        2.76019
C          3.20805       -0.02709        3.05594
C          2.78701       -1.13160        2.09176
C          1.20381        4.78151       -0.29087
C          0.21573        4.03307        0.60603
C          1.46794        3.97734       -1.56442
C          0.14724        3.58648       -2.23271
C          1.26675       -1.20215        2.10268
C          0.23867        2.32094        2.24094
C         -0.77581        2.87615       -1.24424
C         -2.15055        2.57533       -1.79960
C         -0.45527       -2.23434        0.84992
C         -0.77088       -2.20519       -0.47338
C         -1.47866       -2.35618        1.90450
C         -2.85850       -2.41274        1.38441
C          0.18601       -2.09324       -1.58762
C         -3.08349       -2.35438       -0.00657
C         -4.01041       -2.53906        2.21117
C         -4.35325       -2.39521       -0.58091
C          0.08740       -1.00727       -2.47477
C          1.18742       -3.05009       -1.78811
C         -5.28449       -2.58428        1.64524
C         -5.45998       -2.51250        0.25291
C          1.00103       -0.85697       -3.51016
C          2.07784       -2.92842       -2.85397
C          1.99615       -1.83779       -3.71753
H          0.61507        0.77227        3.64714
H          2.88405        1.69361        1.80297
H          2.88366       -0.35945        4.06836
H          3.10728       -0.85796        1.06590
H          2.14564        4.94042        0.25280
H         -0.11150        4.69964        1.42437
H          2.01345        3.05652       -1.30221
H         -0.36407        4.51682       -2.55759
H          0.89272       -1.45838        3.11005
H         -0.80882        2.04826        2.03024
H          0.26000        3.04143        3.07965
H         -0.28173        1.95053       -0.90240
H         -2.75731        2.05592       -1.04650
H         -2.07592        1.93724       -2.69221
H         -2.66580        3.50629       -2.08488
H          2.51509        1.96564        4.59049
H          4.85790        0.86404        3.52093
H          4.27438       -2.24519        2.57658
H         -0.25269        5.97265       -0.78253
H          1.97678        5.62081       -2.42196
H          1.15579        3.22221       -3.82206
H         -4.46459       -2.34995       -1.66207
H         -0.70030       -0.26570       -2.33702
H          1.27371       -3.89337       -1.10224
H         -6.15719       -2.68074        2.29975
H          2.85919       -3.67100       -3.02446
H         -4.70770       -2.70249        3.96535
H         -7.35977       -2.64844        0.36516
H          0.64190        0.99767       -3.97621
H          2.64569       -0.84630       -5.16832
