16
SALICYLIC_ACID.gamout	Energy:    -495.4139242
C         -1.37530       -0.05912        0.01591
C         -0.72307        1.16870       -0.04926
C         -0.61625       -1.23359        0.03966
C          0.77330       -1.16867       -0.00228
C          1.44013        0.06635       -0.06753
O          2.78495        0.12260       -0.10025
C          0.68033        1.26276       -0.09185
C          1.33775        2.59698       -0.16204
O          2.52301        2.81526       -0.23474
O          0.43509        3.61246       -0.13789
H         -2.46550       -0.10216        0.04977
H         -1.29953        2.09348       -0.06822
H         -1.10733       -2.20850        0.09165
H          1.36765       -2.08772        0.01744
H          3.13753       -0.77759       -0.07909
H          0.96081        4.42801       -0.18884
