20
SEC-BUTYL_ACETATE.gamout	Energy:    -385.8196217
O          4.08163        2.34328        1.95190
C          2.81830        2.18252        1.26175
C          1.89332        3.25945        1.82262
C          2.32386        0.75418        1.44922
C          5.21330        2.05027        1.28148
C          0.56660        3.39053        1.07494
C          6.42413        2.26681        2.15599
O          5.24016        1.66416        0.13833
H          3.00139        2.36407        0.19026
H          1.71589        3.05695        2.89400
H          2.44270        4.21462        1.77922
H          2.18315        0.52724        2.51876
H          1.36376        0.60287        0.93215
H          3.04632        0.03987        1.02836
H         -0.02735        4.22657        1.47570
H          0.72971        3.58500        0.00149
H         -0.05141        2.48187        1.15817
H          7.33616        2.12147        1.56452
H          6.40475        3.27836        2.58891
H          6.40856        1.55311        2.99501
