15
SEC-BUTANOL.gamout	Energy:    -233.3467770
C         -0.47147        0.03014       -0.33290
C         -1.75314        0.78873        0.01048
C          0.77370        0.68598        0.26193
C          2.07537       -0.02495       -0.10464
O         -0.51984       -1.30060        0.16808
H         -0.35588        0.01259       -1.43900
H         -1.89116        0.83390        1.10318
H         -1.73300        1.81873       -0.38207
H         -2.63587        0.28767       -0.42259
H          0.80585        1.73808       -0.07146
H          0.65216        0.70696        1.35992
H          2.05058       -1.07309        0.22914
H          2.23976       -0.02457       -1.19589
H          2.94363        0.46486        0.36378
H         -1.26569       -1.75369       -0.24524
