24
SEC-BUTYLBENZENE.gamout	Energy:    -388.9558875
C          2.11529        1.29487        0.87067
C          2.45722        2.13958        2.11796
C          2.67624        1.28356        3.37642
C          3.65083        3.04862        1.86235
C          0.80484        0.50984        0.96323
C          4.91010        2.52411        1.52728
C          3.52621        4.44107        1.96306
C          6.00271        3.36131        1.29859
C          4.61668        5.28472        1.73483
C          5.86100        4.74808        1.40058
H          2.94634        0.59713        0.66295
H          2.06842        1.97379        0.00228
H          1.59062        2.79780        2.30993
H          3.53617        0.60464        3.25247
H          1.79298        0.66762        3.60467
H          2.87651        1.91907        4.25285
H          0.81762       -0.23651        1.77380
H          0.60859       -0.03285        0.02491
H         -0.05358        1.17954        1.14302
H          5.04236        1.44241        1.44315
H          2.55638        4.87379        2.22483
H          6.97163        2.92827        1.03824
H          4.49205        6.36732        1.81807
H          6.71545        5.40479        1.22017
