16
SEC-BUTYLAMINE.gamout	Energy:    -213.4952730
C          2.04138        1.02212        1.87298
C          3.28159        1.92132        1.75067
C          4.50733        1.27614        2.41484
N          2.96930        3.25980        2.26002
C          0.82301        1.52908        1.10220
H          1.79157        0.92224        2.94760
H          2.30905        0.00611        1.53310
H          3.50087        2.04065        0.67208
H          5.39298        1.92722        2.32580
H          4.32500        1.10372        3.49077
H          4.75989        0.30347        1.95916
H          2.82222        3.21711        3.27157
H          3.76131        3.88766        2.11750
H          0.56614        2.55199        1.41473
H          1.02218        1.55505        0.01714
H         -0.05276        0.88045        1.26452
