68
SIMVASTATIN.gamout	Energy:   -1349.8629443
O          2.41394       -0.68070        0.13731
O         -3.85107        0.58952        0.72137
O         -5.46895       -2.35047        0.48869
O          1.96176       -2.49208        1.39330
O         -5.36648        1.38752        2.11229
C          1.36534        1.46589        0.46655
C          0.22209        1.21592       -0.56103
C          1.91077        0.21271        1.16220
C         -0.19263        2.53595       -1.26613
C          2.52728        2.25559       -0.12695
C         -0.97957        0.47247        0.06507
C          3.00240        0.57029        2.17331
C          4.18461        1.36820        1.59067
C          3.76897        2.18892        0.40041
C         -2.14981        0.16667       -0.88950
C          1.01586        3.25386       -1.80121
C          2.24341        3.11233       -1.27290
C         -1.04104        3.49735       -0.40905
C         -3.38222       -0.41795       -0.20096
C          5.40644        0.48718        1.27465
C         -4.47872       -0.85067       -1.16828
C          2.36570       -2.00755        0.36086
C         -5.73076       -1.27653       -0.40233
C          2.84231       -2.81310       -0.85159
C         -6.20453       -0.10806        0.44548
C         -5.11900        0.65804        1.19094
C          1.71794       -2.77933       -1.92182
C          3.13797       -4.24819       -0.40756
C          4.11065       -2.18380       -1.44546
C          0.38243       -3.41509       -1.52789
H          0.92997        2.07679        1.28152
H          0.64759        0.57463       -1.35281
H          1.12068       -0.32305        1.70030
H         -0.81165        2.25768       -2.13662
H         -1.36993        1.05145        0.91839
H         -0.63425       -0.48524        0.48777
H          2.50886        1.15635        2.96547
H          3.35579       -0.35102        2.65649
H          4.51822        2.07968        2.37166
H          4.55917        2.78755       -0.06564
H         -2.47609        1.08005       -1.41421
H         -1.82626       -0.54042       -1.67445
H          0.86666        3.94459       -2.63610
H          3.08053        3.67893       -1.69138
H         -1.98545        3.03964       -0.08006
H         -1.29213        4.39755       -0.99090
H         -0.49383        3.83349        0.48625
H         -3.10111       -1.29481        0.40961
H          5.74975       -0.03386        2.18209
H          5.17174       -0.26946        0.51198
H          6.24474        1.09576        0.89991
H         -4.10005       -1.68365       -1.78286
H         -4.72829       -0.03082       -1.86501
H         -6.52990       -1.55446       -1.11526
H         -6.70674        0.63531       -0.19720
H         -6.94238       -0.44552        1.18479
H          1.55261       -1.72846       -2.21109
H          2.11405       -3.28532       -2.81870
H          4.01170       -4.27526        0.26061
H          3.35861       -4.87874       -1.28257
H          2.29541       -4.68266        0.14360
H          4.93250       -2.18456       -0.71358
H          3.93809       -1.14778       -1.76524
H          4.44799       -2.76632       -2.31602
H         -5.14558       -3.10479       -0.02155
H          0.47590       -4.49555       -1.33783
H         -0.04198       -2.95723       -0.61980
H         -0.35218       -3.28887       -2.33855
