82
SITOSTANOL.gamout	Energy:   -1209.9212479
O          4.24482       -8.04290       -0.80433
C         -0.14559       -0.49108        0.24279
C          1.39107       -0.68701        0.31325
C          1.88687       -2.11410        0.59140
C          1.26634       -3.11150       -0.42066
C          1.66000       -4.61414       -0.12506
C         -0.21882        1.05479       -0.03581
C         -0.64465       -1.42672       -0.87377
C          3.05605       -4.67114        0.58148
C         -0.24820       -2.89031       -0.61420
C          1.87780        0.45383        1.21370
C          3.43481       -2.17365        0.52040
C          0.93149        1.63019        0.85859
C          3.96937       -3.54843        0.07988
C          1.72081       -5.37845       -1.47247
C         -0.84097       -0.82176        1.57443
C         -1.56268        1.82020        0.13586
C          3.70659       -6.06941        0.52973
C          0.63990       -5.29587        0.80286
C          2.32170       -6.78242       -1.40231
C          3.73433       -6.72022       -0.85173
C         -1.38345        3.33123       -0.17157
C         -2.70930        1.24092       -0.70614
C         -2.59300        4.22635        0.16760
C         -2.33543        5.75456        0.13496
C         -3.59523        6.57333        0.53831
C         -1.72162        6.21173       -1.20726
C         -4.12787        6.20291        1.92967
C         -3.35272        8.08893        0.49199
C         -2.62313        6.08656       -2.43840
H          1.75341       -0.44624       -0.70572
H          1.57437       -2.40733        1.61038
H          1.73012       -2.85845       -1.39236
H          0.08456        1.17856       -1.09251
H         -1.73681       -1.37826       -0.98707
H         -0.21518       -1.09074       -1.83469
H          2.88097       -4.46889        1.65185
H         -0.59516       -3.51392       -1.45373
H         -0.79908       -3.24860        0.26849
H          2.93420        0.70467        1.03925
H          1.79029        0.18117        2.27938
H          3.84927       -1.90930        1.50732
H          3.80170       -1.40429       -0.17982
H          1.47143        2.42778        0.32743
H          0.52404        2.09544        1.77207
H          4.05163       -3.58851       -1.01989
H          4.99303       -3.68971        0.46102
H          0.71040       -5.42903       -1.90659
H          2.32337       -4.78982       -2.18532
H         -0.54212       -0.13728        2.38194
H         -1.93392       -0.74685        1.47035
H         -0.61783       -1.83998        1.91943
H         -1.85513        1.74130        1.20034
H          4.73166       -5.99345        0.93161
H          3.16823       -6.76332        1.19609
H          0.47764       -4.71001        1.72130
H          0.98959       -6.28964        1.11712
H         -0.33480       -5.44132        0.31599
H          1.72872       -7.45364       -0.75845
H          2.33592       -7.23746       -2.40316
H          4.35033       -6.09953       -1.53746
H         -0.51684        3.70998        0.39393
H         -1.11597        3.44026       -1.23890
H         -2.45466        1.23219       -1.78038
H         -3.62690        1.83543       -0.58880
H         -2.96173        0.21246       -0.41542
H         -2.93220        3.95529        1.18008
H         -3.44028        3.99130       -0.50086
H          5.13933       -8.01009       -0.44094
H         -1.56830        5.96950        0.90548
H         -4.39442        6.34122       -0.19139
H         -1.38805        7.25716       -1.11079
H         -0.79738        5.63728       -1.37997
H         -4.98888        6.83758        2.19130
H         -3.35729        6.35670        2.70636
H         -4.46483        5.15863        1.99375
H         -4.24771        8.63206        0.83366
H         -2.51695        8.37940        1.15335
H         -3.11896        8.45178       -0.51871
H         -2.09493        6.43168       -3.34091
H         -2.93510        5.04491       -2.62143
H         -3.54057        6.69076       -2.34657
