16
STYRENE.gamout	Energy:    -309.2231807
C          0.88964        0.49741        1.99106
C          1.44808        1.53292        1.34597
C          2.81314        2.06473        1.50619
C          3.74844        1.52045        2.40720
C          3.21381        3.16742        0.72987
C          5.02786        2.05794        2.52397
C          4.49594        3.70838        0.84491
C          5.40992        3.15529        1.74361
H          1.42643       -0.08733        2.74373
H         -0.13985        0.19692        1.78280
H          0.83948        2.06565        0.60554
H          3.47025        0.66461        3.02530
H          2.50286        3.60564        0.02422
H          5.73608        1.61833        3.23032
H          4.78035        4.56498        0.22969
H          6.41430        3.57471        1.83844
