26
SUBERIC_ACID.gamout	Energy:    -613.4301823
C         35.05925       30.13735        0.02042
C         36.32660       29.28564        0.02078
C         36.04393       27.77913        0.02055
C         35.32877       31.62590        0.02110
C         37.31105       26.91306        0.02068
O         34.18108       32.33770        0.02049
O         36.41409       32.15215        0.02211
C         37.02978       25.40625        0.02070
C         38.29838       24.55634        0.02067
C         38.03139       23.06735        0.02102
O         39.18024       22.35755        0.02112
O         36.94687       22.53951        0.02117
H         34.42139       29.92259       -0.85582
H         34.42054       29.92200        0.89590
H         36.93704       29.55645        0.89924
H         36.93765       29.55658       -0.85724
H         35.42799       27.52113       -0.86152
H         35.42769       27.52088        0.90235
H         37.92689       27.17161        0.90267
H         37.92710       27.17149       -0.86121
H         34.43782       33.27595        0.02100
H         36.41936       25.13463       -0.85755
H         36.41940       25.13456        0.89896
H         38.93650       24.77257        0.89636
H         38.93620       24.77214       -0.85535
H         38.92506       21.41888        0.02132
