14
SUCCINIC_ACID.gamout	Energy:    -456.4048854
C          3.12054        0.83614        1.42172
C          4.11205        1.86894        0.90189
C          1.68341        1.22830        1.16492
C          5.44703        1.80349        1.60727
O          0.84738        0.18268        1.31170
O          1.29668        2.33688        0.88533
O          6.41364        2.42517        0.90472
O          5.65062        1.29188        2.68125
H          3.24671        0.72699        2.51305
H          3.29657       -0.16715        1.00365
H          3.70013        2.88011        1.06551
H          4.27476        1.79035       -0.18394
H         -0.05293        0.52274        1.16870
H          7.22401        2.37604        1.44105
