13
SUCCINATE_MONOANION-1.gamout	Energy:    -455.8318442
O          2.94613       -0.76007        0.03295
O         -2.87537        0.95333        0.03047
O          2.03967        1.31592       -0.04409
O         -2.33411       -1.20964       -0.04210
C          0.56565       -0.58181        0.00781
C         -0.54621        0.45659       -0.00022
C          2.01078        0.06288       -0.00179
C         -1.95742       -0.05980       -0.00650
H          0.47980       -1.25260       -0.86499
H          0.48341       -1.23878        0.89140
H         -0.42402        1.13279       -0.86400
H         -0.43192        1.14202        0.85648
H         -3.73630        0.50236        0.01738
