57
SUFENTANIL.gamout	Energy:   -1512.8455167
S         -6.52619       -1.22236       -0.29799
O          1.97626       -1.30034        2.32521
O          2.67036       -2.43588       -1.22006
N         -1.86470        0.07327        0.07483
N          2.39378       -0.32782       -0.37432
C          1.03506       -0.64342        0.20545
C          0.41666        0.60844        0.85806
C          0.08129       -1.07337       -0.93232
C         -1.05623        0.43252        1.22950
C         -1.38640       -1.16587       -0.51599
C          1.18605       -1.75969        1.24879
C         -3.28783        0.06164        0.36060
C          2.99048        0.95920       -0.13870
C          3.10644       -1.30502       -1.05093
C         -4.16686        0.23107       -0.89454
C          4.48849       -0.93101       -1.59555
C          2.86149        1.97731       -1.09343
C          3.70048        1.21329        1.04181
C         -5.63690        0.24987       -0.58916
C          2.19797       -2.27318        3.30862
C          5.11472       -2.07484       -2.38607
C          3.43140        3.23174       -0.87332
C          4.26835        2.46936        1.26213
C         -6.46289        1.33908       -0.44390
C          4.13599        3.47968        0.30659
C         -7.80565        0.99595       -0.10112
C         -7.99098       -0.35700        0.01411
H          0.97926        0.88607        1.75762
H          0.47937        1.44582        0.15021
H          0.16924       -0.31661       -1.72857
H          0.41152       -2.03147       -1.35015
H         -1.16503       -0.30843        2.05557
H         -1.41906        1.39262        1.62768
H         -1.98077       -1.39142       -1.41371
H         -1.54356       -2.02558        0.17825
H          1.64294       -2.64165        0.77282
H          0.18724       -2.06110        1.61888
H         -3.59564       -0.86477        0.89905
H         -3.50848        0.89761        1.04266
H         -3.89656        1.17834       -1.38703
H         -3.94837       -0.57056       -1.61916
H          4.40488       -0.02586       -2.21927
H          5.13368       -0.63493       -0.75100
H          2.30509        1.77289       -2.01006
H          3.77542        0.41699        1.78325
H          2.84238       -1.82859        4.08163
H          2.70304       -3.16984        2.89728
H          1.25365       -2.60567        3.78682
H          4.47643       -2.36054       -3.23505
H          5.23694       -2.97153       -1.76099
H          6.10216       -1.78022       -2.77294
H          3.32430        4.01866       -1.62398
H          4.81702        2.66429        2.18736
H         -6.11219        2.36326       -0.58562
H          4.58063        4.46143        0.48223
H         -8.60396        1.72470        0.04894
H         -8.90571       -0.89500        0.25862
