7
SULFURIC_ACID.gamout	Energy:    -699.6717709
O          1.66984       -0.01837        0.74297
S          1.59178        1.39843        1.02160
O          1.46522        2.43051        0.01746
O          2.87675        1.82334        1.92364
O          0.38155        1.56840        2.09395
H          3.17403        1.03758        2.41570
H          0.10367        2.50148        2.09129
