19
SULFANILAMIDE.gamout	Energy:    -890.7167329
S          0.62524       -0.71880        2.63173
O          1.95404       -0.11580        2.52894
O          0.39496       -2.16284        2.58642
N          0.03426       -0.22896        4.13095
N         -2.84410        1.82314       -1.51173
C         -0.40823        0.03706        1.38243
C         -0.07077        1.29103        0.86104
C         -1.54669       -0.63061        0.91757
C         -2.04781        1.23912       -0.56555
C         -0.88296        1.88814       -0.09544
C         -2.35993       -0.03567       -0.03945
H          0.84389        1.78344        1.19721
H         -1.77795       -1.62755        1.29841
H         -0.61204        2.86604       -0.50358
H         -3.24612       -0.56332       -0.40345
H         -0.89966       -0.59031        4.32077
H          0.10045        0.77852        4.26930
H         -2.61550        2.72741       -1.89731
H         -3.66826        1.35494       -1.85839
