18
SULFANILIC_ACID.gamout	Energy:    -910.5711693
C          6.29171        1.89649       -0.59530
C          6.83131        0.60678       -0.38816
C          4.91769        2.10041       -0.59974
C          4.05575        1.01780       -0.39720
S          2.30696        1.27081       -0.43206
C          4.56572       -0.26711       -0.17895
C          5.93899       -0.46971       -0.17423
N          8.18884        0.40963       -0.35445
O          2.02124        2.68565       -0.22399
O          1.62491        0.24063        0.35513
O          2.00073        0.89871       -2.01734
H          6.96677        2.74184       -0.75260
H          4.50070        3.09676       -0.75350
H          3.87918       -1.09787       -0.00694
H          6.34092       -1.47126        0.00099
H          8.55035       -0.53293       -0.41839
H          8.79898        1.13629       -0.70499
H          1.14407        0.43671       -2.01880
