15
SULFOLANE.gamout	Energy:    -705.2301495
S          0.55024        1.40974       -0.08664
O          2.02113        1.38012       -0.04093
O         -0.18031        2.67860       -0.19242
C         -0.06800        0.40530        1.31291
C          0.00091        0.21138       -1.38222
C          0.04787       -1.02150        0.79349
C         -0.55122       -1.00832       -0.62855
H          0.55665        0.64739        2.18260
H         -1.10885        0.71447        1.49344
H         -0.74086        0.72898       -2.00308
H          0.90429        0.00287       -1.97098
H         -0.47306       -1.73918        1.44491
H          1.11106       -1.31194        0.75959
H         -0.32927       -1.94244       -1.16485
H         -1.64824       -0.92688       -0.55642
