42
SULINDAC.gamout	Energy:   -1494.4225019
S         -3.39068        5.81634        0.71924
F         -2.63493       -3.90494       -1.39654
O          2.33176       -4.57894        0.61679
O          4.05134       -3.17768        0.95198
O         -4.22759        5.19534        1.81224
C          1.80354       -1.78961       -0.91808
C          0.34000       -1.90720       -0.95727
C          2.14114       -0.47926       -0.73270
C          0.90347        0.33320       -0.63592
C         -0.22490       -0.61487       -0.80036
C          2.74338       -2.95790       -1.07530
C          0.93733        1.68278       -0.46999
C         -0.46176       -3.03049       -1.15131
C         -1.60732       -0.45749       -0.89723
C          3.52474        0.08697       -0.61629
C         -0.14224        2.64843       -0.22650
C         -1.84209       -2.83786       -1.21513
C         -2.42313       -1.57737       -1.10608
C          3.13994       -3.56038        0.26249
C         -0.08551        3.92003       -0.83368
C         -1.18911        2.39120        0.67755
C         -2.11747        4.57843        0.27830
C         -1.06418        4.88121       -0.58759
C         -2.16873        3.34926        0.93218
C         -4.38831        5.66269       -0.82368
H          2.27415       -3.73697       -1.69233
H          3.66938       -2.63560       -1.56902
H          1.93294        2.13535       -0.51821
H         -0.05234       -4.03678       -1.24678
H         -2.07127        0.52485       -0.82338
H          3.78517        0.71284       -1.48868
H          3.62709        0.72373        0.27825
H          4.27425       -0.70942       -0.52803
H         -3.50758       -1.48342       -1.17928
H          0.74202        4.15497       -1.50825
H         -1.21098        1.43961        1.21073
H         -0.99637        5.86244       -1.06412
H         -2.97558        3.17571        1.64815
H          2.62044       -4.87449        1.49810
H         -5.26043        6.31641       -0.68180
H         -3.80128        5.98900       -1.69478
H         -4.70684        4.61524       -0.91988
