24
SYRINGIC_ACID.gamout	Energy:    -724.1760028
O          7.58882        2.04548       -1.36681
C          7.12923        3.20606       -2.01698
C          6.68911        1.23723       -0.75768
C          7.23318        0.09874       -0.12884
C          5.30768        1.45169       -0.71375
O          8.56154       -0.12012       -0.16335
C          6.38219       -0.80685        0.53428
C          4.47400        0.53930       -0.04850
O          7.05424       -1.85836        1.09298
C          5.00810       -0.59511        0.57913
C          3.00655        0.72818        0.02181
C          6.32288       -2.84371        1.78847
O          2.57846        1.84664       -0.61024
O          2.23349       -0.02101        0.57932
H          6.62592        3.89934       -1.31786
H          8.01707        3.70248       -2.43202
H          6.43247        2.97005       -2.84251
H          4.85963        2.32061       -1.18994
H          8.71629       -0.94657        0.32353
H          4.32436       -1.27595        1.08288
H          7.05221       -3.58205        2.14803
H          5.78551       -2.41541        2.65332
H          5.59313       -3.34766        1.13007
H          1.61358        1.86234       -0.49751
