15
TARTRATE-1.gamout	Energy:    -606.1217340
O         -0.96694        1.61447        0.90052
O          0.95040       -1.51229        1.00913
O         -1.40842       -1.78383       -0.06424
O          1.93921        1.68988       -0.10791
O         -2.38995        0.17690       -0.63666
O          1.42954       -0.04859       -1.41709
C         -0.72717        0.24337        1.05034
C          0.77995       -0.13063        0.94423
C         -1.59227       -0.54199        0.00349
C          1.39241        0.46508       -0.32593
H         -1.03373       -0.11940        2.05521
H          1.31171        0.35231        1.78613
H         -1.67687        1.57701        0.20738
H          0.12183       -1.87739        0.57414
H          2.23021        1.99211       -0.98533
