9
TCB-1.gamout	Energy:    -395.8685199
N          2.76549       -0.00019       -0.00111
N         -0.92207        2.60717       -0.00028
N         -0.92215       -1.30370        2.25752
N         -0.92178       -1.30423       -2.25698
C          1.60410        0.00032        0.00011
C         -0.53507        1.51223       -0.00005
C         -0.53436       -0.75586        1.30981
C         -0.53430       -0.75611       -1.30915
B          0.00024        0.00028        0.00014
