43
TEBUCONAZOLE.gamout	Energy:   -1321.2432846
Cl         6.10198        1.47634       -1.61373
O          1.07506       -4.50446        2.47053
N         -0.50300       -2.15826        2.98564
N         -0.24135       -2.51890        4.25671
N         -0.31498       -0.26345        4.08528
C          0.46993       -3.85613        1.35621
C         -0.00903       -4.96644        0.32050
C          1.52280       -2.84281        0.83173
C         -0.76790       -3.13911        1.94996
C         -1.04557       -4.45760       -0.69927
C          1.19559       -5.52929       -0.45352
C         -0.65130       -6.13798        1.08737
C          1.18862       -1.83664       -0.28768
C          2.38650       -0.98115       -0.63884
C         -0.55541       -0.80355        2.90733
C          2.72626        0.14686        0.12132
C          3.21912       -1.32544       -1.71263
C         -0.12903       -1.35579        4.87565
C          3.86074        0.90476       -0.17159
C          4.35826       -0.58017       -2.01957
C          4.67564        0.53477       -1.24287
H          2.41304       -3.41476        0.52247
H          1.84046       -2.27005        1.71733
H         -1.32506       -2.62085        1.16108
H         -1.42764       -3.89569        2.39188
H         -1.26493       -5.25662       -1.42530
H         -2.00167       -4.19298       -0.22433
H         -0.69982       -3.58879       -1.27587
H          1.62971       -4.79511       -1.14758
H          0.87889       -6.39904       -1.04805
H          1.99204       -5.87680        0.22429
H          0.04840       -6.56642        1.81456
H         -1.55463       -5.83405        1.63712
H         -0.95369       -6.92592        0.37923
H          0.35353       -1.18895        0.02693
H          0.85368       -2.35830       -1.19456
H          1.99565       -4.70341        2.25766
H         -0.78896       -0.26851        1.98749
H          2.09724        0.44581        0.96364
H          2.97432       -2.19590       -2.32728
H          0.08684       -1.29560        5.94230
H          4.11624        1.78141        0.42476
H          4.99821       -0.85764       -2.85781
