18
TEREPHTALIC_ACID.gamout	Energy:    -608.6392615
O          0.82462        3.00745        0.11725
C          1.49491        1.88513       -0.21546
O          0.93410        0.88704       -0.60354
C          2.97264        2.01744       -0.05182
C          3.57066        3.20247        0.40342
C          3.76871        0.90796       -0.36940
C          4.95419        3.27255        0.53834
C          5.15224        0.97821       -0.23444
C          5.75022        2.16316        0.22076
C          7.22770        2.29550        0.38447
O          7.89818        1.17315        0.05192
O          7.78861        3.29360        0.77252
H         -0.11844        2.81724       -0.02357
H          2.94498        4.06085        0.64826
H          3.27879       -0.00107       -0.72111
H          5.44419        4.18156        0.88998
H          5.77796        0.11989       -0.47926
H          8.84117        1.36359        0.19281
