29
TERT-OCTYLAMMONIUM+1.gamout	Energy:    -370.8895473
N          0.55792        0.07924        0.05585
C          0.32154       -1.43459       -0.15126
C          1.05788       -2.17459        0.99021
C          2.61224       -2.24643        1.13460
C          3.24481       -3.21543        0.12053
C          3.29649       -0.87077        1.02262
C          2.88029       -2.79799        2.55106
C         -1.19148       -1.63738       -0.01818
C          0.77295       -1.74642       -1.57710
H          0.17063        0.39396        0.95502
H          0.11536        0.63309       -0.68887
H          1.56808        0.28511        0.06617
H          0.68253       -3.20958        0.95713
H          0.65268       -1.76379        1.93268
H          3.16399       -2.87018       -0.91947
H          2.78402       -4.21385        0.18400
H          4.31780       -3.33702        0.33503
H          3.26959       -0.45670       -0.00365
H          4.36664       -0.95715        1.26455
H          2.88303       -0.13523        1.73556
H          2.40689       -3.78240        2.69044
H          2.49265       -2.12350        3.33156
H          3.96053       -2.92071        2.72007
H         -1.55521       -1.39967        0.99419
H         -1.43770       -2.68976       -0.21771
H         -1.74892       -1.02877       -0.74861
H          1.81943       -1.47212       -1.76901
H          0.13485       -1.22890       -2.31160
H          0.67390       -2.82507       -1.76419
