18
TERT-BUTYLFORMAMIDE.gamout	Energy:    -326.7018522
N         35.05217       26.91686       -0.02641
C         33.74918       26.22639        0.01064
C         36.28463       26.34431       -0.09168
C         32.67678       27.32183        0.03428
C         33.56779       25.35728       -1.24636
C         33.63166       25.36128        1.27804
O         37.33291       26.95629       -0.08349
H         35.06324       27.93031        0.05649
H         36.24423       25.22920       -0.15948
H         31.67104       26.87702        0.06148
H         32.78680       27.96350        0.92362
H         32.74410       27.95687       -0.86343
H         32.57527       24.87964       -1.24590
H         34.32143       24.55671       -1.29477
H         33.66002       25.96756       -2.15768
H         33.75936       25.97655        2.18202
H         32.64494       24.87375        1.32694
H         34.39626       24.56950        1.29607
