27
TERT-BUTYL_ISOBUTYL_ETHER.gamout	Energy:    -390.3664254
O         -0.28790        0.26012       -0.33445
C         -1.64395       -0.04290        0.02587
C          2.08340       -0.00269       -0.40140
C          0.76423       -0.53551        0.15996
C         -1.85984        0.08742        1.54007
C         -2.45398        1.02182       -0.71378
C         -2.04748       -1.44114       -0.46198
C          2.32479        1.44785        0.02125
C          3.24504       -0.91396        0.00233
H          1.98350       -0.02601       -1.50241
H          0.64293       -1.59537       -0.13839
H          0.80287       -0.51253        1.26942
H         -1.53239        1.07884        1.88943
H         -2.92695       -0.03032        1.78684
H         -1.30691       -0.67892        2.10483
H         -2.27334        0.94597       -1.79655
H         -2.14410        2.02632       -0.38864
H         -3.53244        0.90549       -0.52484
H         -1.51506       -2.23943        0.07775
H         -3.12581       -1.60629       -0.30836
H         -1.83208       -1.54718       -1.53652
H          3.23471        1.85283       -0.44960
H          2.45157        1.52416        1.11600
H          1.47363        2.08068       -0.26682
H          4.19288       -0.56373       -0.43623
H          3.08551       -1.95155       -0.33400
H          3.37570       -0.93299        1.09855
