15
TERT-BUTANOL.gamout	Energy:    -233.3498599
C          0.77409        1.16493        2.66126
C          1.72817        1.76927        1.62182
C          2.80455        2.61494        2.30215
C          2.36436        0.66838        0.76274
O          1.01154        2.67993        0.78427
H         -0.00984        0.56402        2.16876
H          1.30278        0.50620        3.36912
H          0.28044        1.96695        3.23102
H          3.42227        2.00456        2.97862
H          3.45702        3.07539        1.54488
H          2.33540        3.42383        2.88236
H          3.00958        1.11607       -0.00849
H          2.97062       -0.02376        1.36920
H          1.58670        0.07260        0.25485
H          0.31806        2.18280        0.32977
