21
TERT-BUTYL_ETHYL_ETHER.gamout	Energy:    -311.8525076
O          0.48686       -0.48392       -0.01749
C         -0.84743        0.03848        0.00979
C         -1.12714        0.93735       -1.20396
C         -1.72378       -1.21317       -0.05201
C         -1.10822        0.79811        1.31933
C          1.57577        0.40564       -0.11384
C          2.85117       -0.40618        0.03375
H         -0.85532        0.41838       -2.13661
H         -2.19753        1.19266       -1.25372
H         -0.56590        1.88341       -1.15710
H         -1.48151       -1.88288        0.78696
H         -1.53503       -1.76044       -0.98786
H         -2.79298       -0.95542       -0.00152
H         -0.49321        1.70778        1.40022
H         -2.16321        1.10911        1.38511
H         -0.88459        0.15323        2.18336
H          1.57872        0.93320       -1.08899
H          1.53224        1.18651        0.67155
H          3.73903        0.23632       -0.07782
H          2.88997       -0.89244        1.02120
H          2.89029       -1.19531       -0.73374
