27
TERT-BUTYLCYCLOPENTANE.gamout	Energy:    -353.2903886
C          3.43434       -1.51749        0.50863
C          3.24139       -0.02444        0.83023
C          4.60064       -1.98953        1.42053
C          3.65665        0.08072        2.30154
C          4.91689       -0.80768        2.38610
C          5.43000       -1.19139        3.80683
C          6.69839       -2.05609        3.67470
C          4.38034       -1.96766        4.61829
C          5.80352        0.08653        4.58128
H          2.51313       -2.07195        0.75489
H          3.63185       -1.69625       -0.55970
H          3.91647        0.59159        0.20973
H          2.21581        0.32767        0.64081
H          5.49054       -2.26374        0.83366
H          4.30971       -2.89370        1.97788
H          2.85247       -0.32277        2.94226
H          3.83866        1.11794        2.62015
H          5.73568       -0.22455        1.92383
H          7.47715       -1.53553        3.09260
H          7.12025       -2.28387        4.66764
H          6.49463       -3.01640        3.17554
H          3.47819       -1.36527        4.80781
H          4.06535       -2.89439        4.11335
H          4.79140       -2.25618        5.59940
H          6.55365        0.67984        4.03243
H          4.92972        0.73306        4.75839
H          6.23194       -0.16419        5.56576
