30
TERT-BUTYLCYCLOHEXANE.gamout	Energy:    -392.5451428
C          2.09695        2.28556        4.22214
C          2.00904        2.15732        2.69211
C          1.02424        3.21518        2.15776
C          1.42950        0.77143        2.34660
C          3.40596        2.33552        2.00688
C          3.94617        3.79180        2.03938
C          4.50987        1.39185        2.51717
C          5.47586        3.87831        1.85312
C          5.72386        1.38048        1.56380
C          5.98576        2.76634        0.93644
H          2.72735        1.49856        4.66416
H          1.09467        2.19601        4.67147
H          2.50809        3.25930        4.53318
H          1.31368        4.23780        2.44200
H          0.95619        3.17852        1.05741
H          0.01266        3.03768        2.55859
H          1.34597        0.63537        1.25563
H          0.42054        0.65873        2.77506
H          2.04581       -0.05039        2.74177
H          3.23866        2.07625        0.94413
H          3.67910        4.27781        2.99230
H          3.44931        4.37658        1.24866
H          4.13562        0.36497        2.64131
H          4.83076        1.72213        3.52010
H          5.98108        3.79435        2.83158
H          5.74879        4.86893        1.45545
H          5.56306        0.63804        0.76361
H          6.61316        1.04248        2.12137
H          7.05895        2.89549        0.72572
H          5.47182        2.84626       -0.03842
