20
TERT-BUTYL_ACETATE.gamout	Energy:    -385.8196393
O          1.84538        1.19501        0.01559
C          0.49057        0.63345        0.02815
C          2.94794        0.42832       -0.04251
C         -0.39036        1.87803        0.10103
C          0.23009       -0.14227       -1.26471
C          0.29486       -0.23988        1.26988
C          4.18669        1.29496       -0.04038
O          2.95835       -0.77866       -0.08926
H         -1.45443        1.59679        0.11892
H         -0.16500        2.45509        1.01026
H         -0.21540        2.52793       -0.76955
H         -0.82338       -0.46209       -1.30019
H          0.86965       -1.03126       -1.33004
H          0.41900        0.49736       -2.14118
H          0.53519        0.32891        2.18176
H         -0.75717       -0.55919        1.33722
H          0.93086       -1.13286        1.23097
H          4.15730        1.99582       -0.88887
H          4.22069        1.90022        0.87878
H          5.07804        0.65982       -0.10547
