24
TERT-BUTYLBENZENE.gamout	Energy:    -388.9524791
C          5.19384        0.92483        2.48365
C          3.86712        1.18897        2.13240
C          5.91305        1.83212        3.26344
C          3.21344        2.36358        2.54557
C          3.95581        3.26215        3.33199
C          1.77521        2.68304        2.09552
C          5.28318        3.00396        3.68581
C          1.03712        3.56739        3.11855
C          1.84442        3.43637        0.74859
C          0.94153        1.40153        1.90034
H          5.66385       -0.00093        2.14258
H          3.34027        0.45548        1.52074
H          6.95066        1.62822        3.53862
H          3.49992        4.18834        3.68385
H          5.82466        3.72824        4.29961
H          1.01360        3.09682        4.11444
H         -0.00331        3.72653        2.79443
H          1.49698        4.56093        3.22441
H          0.83103        3.67908        0.38839
H          2.34365        2.82694       -0.02074
H          2.40659        4.37790        0.84781
H          0.91906        0.79289        2.81808
H          1.32774        0.77149        1.08577
H         -0.09585        1.66412        1.63986
