49
TESTOSTERONE.gamout	Energy:    -890.1080750
O         -2.78277        2.84507        2.22554
O          2.38247        5.54477       -7.03557
C         -0.31211        2.50673       -0.47511
C         -1.75263        2.88660       -0.07050
C         -0.09274        2.38400       -1.99078
C         -0.47641        3.73087       -2.67042
C         -0.24900        3.75592       -4.23078
C         -2.08749        4.23425       -0.71834
C         -1.88669        4.20223       -2.24406
C         -1.59099        2.90925        1.47221
C          0.03800        1.33548        0.46294
C          1.35214        2.00991       -2.33825
C         -0.70710        1.68002        1.78187
C          1.16083        3.25391       -4.54012
C          1.59788        1.98739       -3.85135
C         -2.80595        1.83430       -0.44613
C         -0.40598        5.20713       -4.74914
C         -1.25239        2.83542       -4.96321
C          0.15034        5.44667       -6.15285
C          1.98010        3.86787       -5.42393
C          1.59890        5.01566       -6.26757
H          0.31590        3.35776       -0.14453
H         -0.75626        1.58502       -2.37093
H          0.23925        4.47274       -2.26602
H         -1.43204        5.01006       -0.28280
H         -3.12558        4.53481       -0.49715
H         -2.64925        3.54697       -2.69468
H         -2.08136        5.20915       -2.64196
H         -1.03029        3.83106        1.73008
H          1.12241        1.23346        0.61319
H         -0.31791        0.37683        0.05038
H          1.60788        1.02500       -1.91749
H          2.03973        2.73772       -1.86871
H         -0.01361        1.89262        2.60872
H         -1.35859        0.85912        2.11922
H          1.03142        1.14382       -4.29093
H          2.65708        1.78850       -4.06890
H         -2.57499        0.84441       -0.02872
H         -3.78307        2.13115       -0.03999
H         -2.90860        1.71711       -1.53308
H          0.11664        5.88371       -4.05073
H         -1.46571        5.49566       -4.72639
H         -1.22677        1.80558       -4.58065
H         -2.28013        3.20916       -4.85351
H         -1.02467        2.78818       -6.03781
H         -0.42030        4.88176       -6.91372
H          0.08245        6.50513       -6.43926
H          2.98803        3.48353       -5.60093
H         -3.25295        3.68204        2.12005
