53
TETRABUTYLPHOSPHONIUM+1.gamout	Energy:    -971.4841330
C          0.39748       -5.29826        2.29391
C          1.88739       -5.57684        2.09288
C          2.48105       -4.82597        0.89083
C          3.97843       -5.12921        0.69932
P          4.82444       -4.30280       -0.70753
C          4.05256       -4.91205       -2.26199
C          4.65389       -4.40768       -3.59757
C          3.91158       -3.23290       -4.25012
C          2.52520       -3.58732       -4.79179
C          6.59097       -4.82737       -0.73253
C          7.29289       -5.02974        0.62436
C          8.79498       -5.32702        0.48558
C          9.13627       -6.64646       -0.20937
C          4.71302       -2.46771       -0.66316
C          5.45276       -1.70144        0.45187
C          4.78104       -1.65278        1.82983
C          3.46534       -0.87498        1.86758
H          0.20433       -4.22660        2.46630
H         -0.19399       -5.60783        1.41636
H          0.01049       -5.84831        3.16467
H          2.44568       -5.29559        3.00389
H          2.04813       -6.66205        1.95898
H          1.91964       -5.09889       -0.01991
H          2.33382       -3.74165        1.03382
H          4.54624       -4.86447        1.60648
H          4.13706       -6.21204        0.54269
H          4.13688       -6.00953       -2.18622
H          2.97382       -4.69118       -2.20505
H          6.61103       -5.75946       -1.32118
H          7.12955       -4.07294       -1.33205
H          5.12228       -2.16916       -1.64212
H          3.64221       -2.20589       -0.69647
H          5.71851       -4.14893       -3.46962
H          4.65172       -5.25630       -4.30135
H          3.83359       -2.38429       -3.54686
H          4.53672       -2.86858       -5.08160
H          2.58463       -4.40935       -5.52409
H          1.81973       -3.89551       -4.00129
H          2.07631       -2.72170       -5.30139
H          7.16949       -4.12932        1.24733
H          6.80909       -5.85683        1.17270
H          9.28322       -4.48517       -0.03854
H          9.21949       -5.33204        1.50266
H          8.66636       -7.50585        0.29837
H          8.82268       -6.66578       -1.26693
H         10.22363       -6.81515       -0.20002
H          6.47640       -2.09540        0.55191
H          5.57849       -0.66722        0.08838
H          4.63075       -2.67195        2.22963
H          5.49563       -1.17786        2.52058
H          3.07170       -0.82744        2.89369
H          3.60860        0.16081        1.51912
H          2.67752       -1.32811        1.24223
