6
TETRAFLUOROETHYLENE.gamout	Energy:    -474.9678958
C          2.17970        1.23449        0.11482
F          2.81582        2.38516        0.18034
F          2.97905        0.18865        0.10092
C          0.85196        1.13751        0.06688
F          0.21578       -0.01326        0.00136
F          0.05252        2.18342        0.08078
