13
TETRANITROMETHANE.gamout	Energy:    -857.4045473
N         10.90733       30.87089       -0.13696
C         12.43787       31.00031        0.00046
N         12.74232       32.50586        0.13539
N         12.94532       30.21991        1.23021
N         13.15604       30.40428       -1.22736
O         10.36299       30.05091        0.55800
O         10.42826       31.62344       -0.95010
O         13.61354       32.95222       -0.56723
O         12.05612       33.06890        0.95333
O         12.91869       29.02153        1.08805
O         13.30168       30.86709        2.18209
O         14.34936       30.29274       -1.08391
O         12.47308       30.12341       -2.17961
