29
TETRAETHYLSILANE.gamout	Energy:    -605.8231653
Si        -0.54982       -1.61686        0.04433
C          1.27642       -1.35001       -0.44057
C         -1.44319        0.06450        0.18785
C         -0.67161       -2.43195        1.76301
C         -1.36462       -2.77975       -1.23027
C          2.09743       -0.48480        0.52743
C         -1.37929        1.01745       -1.01544
C          0.02310       -3.79202        1.92675
C         -1.32006       -2.36149       -2.70838
H          1.30559       -0.90497       -1.45249
H          1.75198       -2.34284       -0.55133
H         -1.01590        0.56944        1.07529
H         -2.49830       -0.13394        0.45622
H         -1.74635       -2.52974        2.00854
H         -0.27293       -1.71686        2.50653
H         -2.41306       -2.94846       -0.91861
H         -0.87289       -3.76560       -1.12207
H          3.14147       -0.36708        0.19176
H          1.67327        0.52798        0.62915
H          2.12851       -0.92350        1.53848
H         -1.87835        1.97821       -0.80383
H         -0.33882        1.24934       -1.29801
H         -1.86596        0.58998       -1.90628
H         -0.38741       -4.54555        1.23443
H         -0.09326       -4.19310        2.94733
H          1.10561       -3.72560        1.72613
H         -0.28570       -2.19955       -3.05442
H         -1.76312       -3.13113       -3.36188
H         -1.87272       -1.42592       -2.89022
