46
TETRAPHENYLETHYLENE.gamout	Energy:   -1001.4431916
C          5.06892        5.96891        3.21732
C          6.08103        5.05213        3.30792
C          7.46317        5.32314        2.79424
C          5.89848        3.69974        3.92628
C          5.31690        7.40756        2.87847
C          3.63446        5.61279        3.45770
C          7.67285        5.70549        1.45796
C          8.59102        5.13099        3.61237
C          6.30870        2.53522        3.25233
C          5.38190        3.56265        5.22645
C          6.24502        8.16807        3.61116
C          4.58264        8.05707        1.86961
C          3.02508        4.55363        2.76238
C          2.83733        6.37122        4.33381
C          8.96278        5.89045        0.95770
C          9.87897        5.32853        3.11743
C          6.18749        1.28058        3.84679
C          5.27368        2.30808        5.82797
C          6.43869        9.52318        3.34107
C          4.78336        9.40822        1.59221
C          1.67301        4.25934        2.94177
C          1.48978        6.07040        4.52194
C         10.07190        5.70435        1.78515
C          5.67362        1.16059        5.14055
C          5.71016       10.15040        2.32898
C          0.89828        5.01489        3.82396
H          6.81100        5.84070        0.80211
H          8.45179        4.82559        4.65163
H          6.72289        2.61869        2.24533
H          5.07519        4.45485        5.77512
H          6.80970        7.69037        4.41342
H          3.84837        7.49066        1.29309
H          3.61858        3.96537        2.06054
H          3.28379        7.20618        4.87764
H          9.10026        6.17753       -0.08740
H         10.74004        5.18352        3.77428
H          6.50242        0.38940        3.29875
H          4.87824        2.22852        6.84334
H          7.16094       10.09263        3.93025
H          4.20909        9.88748        0.79591
H          1.22246        3.43535        2.38399
H          0.89523        6.66778        5.21713
H         11.08186        5.84883        1.39497
H          5.58745        0.17821        5.60977
H          5.86099       11.21132        2.11671
H         -0.16033        4.78506        3.96498
