37
TETRAETHYLENE_GLYCOL_DIMETHYL_ETHER.gamout	Energy:    -769.3297000
C         -0.87129       -1.46941        0.78903
C          0.87142       -1.46961       -0.78977
C         -1.86436       -0.56525        1.48491
C          1.86469       -0.56560       -1.48536
C         -3.73797        0.80365        1.10697
C          3.73841        0.80274       -1.10726
C         -4.75324        1.19254        0.05564
C          4.75308        1.19228       -0.05565
C         -6.48199        0.33385       -1.27695
C          6.48136        0.33462        1.27809
O          0.00004       -0.70312       -0.00048
O         -2.79194       -0.07138        0.55396
O          2.79211       -0.07189       -0.55421
O         -5.57981        0.09587       -0.23358
O          5.57954        0.09582        0.23460
H         -0.30761       -2.04293        1.55590
H         -1.43070       -2.20344        0.17207
H          0.30783       -2.04308       -1.55674
H          1.43058       -2.20368       -0.17262
H         -2.37892       -1.14527        2.28074
H         -1.31495        0.26239        1.98100
H          2.37939       -1.14565       -2.28107
H          1.31553        0.26213       -1.98158
H         -3.24911        1.72492        1.49116
H         -4.26700        0.33120        1.96151
H          3.24974        1.72378       -1.49227
H          4.26788        0.32979       -1.96125
H         -5.35204        2.04893        0.43607
H         -4.21810        1.54179       -0.85230
H          5.35203        2.04848       -0.43625
H          4.21744        1.54201        0.85181
H         -7.08136       -0.57753       -1.42010
H         -7.17087        1.17522       -1.05087
H         -5.96450        0.56933       -2.23016
H          7.08071       -0.57663        1.42213
H          7.17028        1.17584        1.05158
H          5.96356        0.57082        2.23095
