17
TETRAMETHYLSILANE.gamout	Energy:    -448.8186088
Si        -0.00021       -0.00043        0.00029
C         -0.93218       -0.17650       -1.64198
C          0.89712        1.66983        0.04649
C          1.26670       -1.40371        0.15443
C         -1.23147       -0.08893        1.44052
H         -1.46646       -1.14037       -1.69949
H         -1.67953        0.62555       -1.76824
H         -0.24349       -0.12710       -2.50296
H          1.62403        1.75964       -0.77911
H          0.18812        2.51078       -0.04317
H          1.45133        1.80354        0.99152
H          1.83143       -1.33562        1.10016
H          0.77717       -2.39252        0.13178
H          1.99825       -1.37661       -0.67136
H         -0.72095        0.00961        2.41403
H         -1.98226        0.71723        1.37658
H         -1.77537       -1.04912        1.44744
