31
TETRAETHYLENE_GLYCOL.gamout	Energy:    -690.8355934
C          5.14176        3.56962        0.92802
O          4.68879        4.36632        1.99049
C          3.69062        5.28273        1.62807
C          6.22976        2.65572        1.45656
C          3.23159        6.04585        2.84921
O          6.66390        1.85212        0.37984
O          2.47417        5.20287        3.67647
C          7.53283        0.79838        0.70236
C          2.04801        5.80719        4.86808
C          8.98935        1.20906        0.90896
C          1.23486        4.78996        5.64684
O          9.22937        1.97286        2.07363
O          0.80422        5.41155        6.83845
H          5.54961        4.18950        0.10199
H          4.31993        2.96010        0.49814
H          2.81910        4.76593        1.17519
H          4.07301        6.00533        0.87547
H          5.81743        2.03042        2.27551
H          7.05467        3.25336        1.88138
H          2.62926        6.92060        2.52313
H          4.12036        6.43783        3.38540
H          7.49470        0.09031       -0.14403
H          7.17012        0.24937        1.60064
H          1.42274        6.70360        4.67048
H          2.90673        6.14439        5.48509
H          9.29953        1.83740        0.05803
H          9.61388        0.29037        0.88283
H          0.38894        4.45631        5.01234
H          1.87079        3.90158        5.83490
H          9.01110        1.43062        2.84380
H          0.29428        4.77318        7.35096
