53
TETRABUTYLAMMONIUM+1.gamout	Energy:    -684.9347374
N          0.00314       -0.00350        0.00647
C          0.86157       -1.02146        0.75291
C         -0.88662        0.72067        1.01425
C         -0.83704       -0.73951       -1.03424
C          0.87462        1.02744       -0.70656
C          1.88151       -0.48928        1.75767
C         -1.92658        1.69784        0.46922
C         -1.87370       -1.74122       -0.52896
C          1.93039        0.51061       -1.68215
C          2.60449       -1.65743        2.44940
C         -2.68204        2.36921        1.62854
C         -2.58452       -2.41194       -1.71617
C          2.66605        1.68956       -2.34079
C          3.64509       -1.19278        3.46766
C         -3.73582        3.36850        1.15275
C         -3.63681       -3.43157       -1.28190
C          3.73081        1.24242       -3.34152
H          1.36412       -1.61432       -0.02222
H          0.15400       -1.68577        1.26424
H         -0.20066        1.25128        1.68629
H         -1.37558       -0.06655        1.60228
H         -0.11837       -1.25141       -1.68583
H         -1.32236        0.04197       -1.63276
H          1.34682        1.62041        0.08705
H          0.17715        1.68789       -1.23651
H          1.39314        0.12876        2.52954
H          2.63018        0.15114        1.26148
H         -2.65418        1.18251       -0.18042
H         -1.45072        2.48257       -0.14234
H         -2.62741       -1.24587        0.10612
H         -1.40098       -2.52431        0.08706
H          1.47006       -0.10374       -2.47382
H          2.66753       -0.12940       -1.16834
H          3.08793       -2.29102        1.68439
H          1.85789       -2.30070        2.94829
H         -1.95544        2.88010        2.28513
H         -3.15981        1.59188        2.25134
H         -1.83222       -2.90510       -2.35734
H         -3.05625       -1.63538       -2.34456
H          3.13099        2.31421       -1.55707
H          1.92882        2.33767       -2.84739
H          3.18648       -0.58844        4.26729
H          4.43296       -0.58452        2.99444
H          4.13379       -2.05471        3.94360
H         -4.50592        2.88306        0.53161
H         -3.28462        4.17971        0.55828
H         -4.24596        3.83117        2.00931
H         -4.42896       -2.96424       -0.67450
H         -3.19061       -4.24535       -0.68690
H         -4.11797       -3.88842       -2.15826
H          3.29218        0.64849       -4.16023
H          4.51016        0.62959       -2.85997
H          4.22723        2.11277       -3.79351
