16
TETRAHYDROPYRAN.gamout	Energy:    -271.3961942
C          1.57611        2.76845        2.35618
C          1.00251        1.89957        1.23097
C          3.03205        3.13925        2.04919
C          1.93849        0.72636        0.93755
C          3.83816        1.88604        1.70244
O          3.25137        1.15957        0.64122
H          1.53551        2.20569        3.30783
H          0.96558        3.67430        2.50283
H          0.88639        2.50235        0.31271
H          0.00215        1.51886        1.49788
H          3.49622        3.65698        2.90534
H          3.06856        3.83170        1.18955
H          1.59373        0.15036        0.06562
H          1.95593        0.03700        1.81060
H          3.92726        1.23847        2.60283
H          4.85738        2.14607        1.37838
