6
TETRAFLUOROHYDRAZINE.gamout	Energy:    -507.9656243
N          2.32500        1.01008       -0.42524
N          3.57604        1.09214        0.42525
F          1.59604        2.03875        0.10380
F          1.73798       -0.10525        0.10384
F          4.16280        2.20764       -0.10381
F          4.30514        0.06353       -0.10383
