7
TFA-1.gamout	Energy:    -525.6399309
C         -0.94199       -0.00375        0.16648
C         -2.48884        0.05748       -0.14765
O         -2.83390        1.17323       -0.57154
O         -3.10915       -0.99502        0.06828
F         -0.56357        0.92961        1.08156
F         -0.51169       -1.19125        0.65550
F         -0.18475        0.23511       -0.93933
