8
THIAZOLE.gamout	Energy:    -568.6498396
C          7.98818        2.09161       -0.14789
S          9.06170        1.05391        0.75599
N          6.78423        1.63150       -0.31048
C          7.76560       -0.07854        0.91507
C          6.64733        0.40494        0.28652
H          8.34069        3.05138       -0.53275
H          7.89216       -1.01778        1.44970
H          5.68907       -0.11601        0.23812
