13
THIACYCLOPENTANE.gamout	Energy:    -555.0337412
C          1.78885        2.82589        2.52302
C          0.66481        1.94361        1.97461
C          2.90575        1.88210        2.97584
C          1.31744        0.95236        1.00876
S          2.95083        0.49944        1.74795
H          1.44605        3.46443        3.35368
H          2.16396        3.49098        1.72617
H         -0.11763        2.53335        1.46932
H          0.18398        1.39581        2.80348
H          2.70079        1.46828        3.97619
H          3.88964        2.37176        2.99911
H          1.48410        1.40740        0.01931
H          0.72138        0.03864        0.87274
