16
THIACYCLOHEXANE.gamout	Energy:    -594.2943164
C         -8.18542       -0.22596       -0.23273
C         -7.10349        0.73320        0.27805
C         -5.68932        0.28102       -0.08756
H         -7.17669        0.82526        1.37609
H         -7.27542        1.74144       -0.13908
S         -5.26386       -1.36040        0.60830
H         -4.93201        0.97255        0.31205
H         -5.55957        0.25249       -1.18420
C         -8.03845       -1.65316        0.30708
H         -8.15361       -0.25173       -1.33876
H         -9.17955        0.16707        0.03687
C         -6.69689       -2.29066       -0.05520
H         -8.85313       -2.28359       -0.09091
H         -8.14650       -1.64806        1.40610
H         -6.59092       -2.38377       -1.15081
H         -6.60930       -3.30274        0.36776
