7
THIACYCLOPROPANE.gamout	Energy:    -476.4957326
C          2.02343        0.33200        0.88700
C          0.54091        0.34875        0.88699
S          1.30104        2.01140        0.85528
H          2.54259        0.06181        1.81291
H          2.54219        0.02682       -0.02819
H          0.01534        0.05551       -0.02821
H          0.01579        0.09060        1.81294
