13
THIOPHENOL.gamout	Energy:    -629.9492059
S          7.52953        3.19828       -1.01828
C          6.36652        1.89270       -0.67628
C          6.88551        0.63170       -0.34135
C          4.97527        2.06909       -0.72548
C          6.02523       -0.43091       -0.06133
C          4.63959       -0.25476       -0.11114
C          4.12227        0.99923       -0.44445
H          6.61806        4.15681       -1.29661
H          7.96734        0.48199       -0.30068
H          4.55459        3.04373       -0.98377
H          6.44392       -1.40687        0.19774
H          3.96878       -1.08837        0.10800
H          3.04044        1.15131       -0.48710
