9
THIOPHENE.gamout	Energy:    -552.6215248
C          2.98991        0.13851        0.90185
C          1.56076        0.12859        0.91938
C          3.52997        0.31647        2.15069
C          1.04901        0.29933        2.18105
S          2.30298        0.47366        3.35916
H          3.59165        0.01838       -0.00051
H          0.93885        0.00002        0.03199
H          4.58120        0.36432        2.43063
H          0.00439        0.33261        2.48657
