25
THYMOL.gamout	Energy:    -464.0943980
C         -5.46338        4.37666        1.00039
C         -4.27377        3.64507        0.42954
H         -5.29138        4.67158        2.04993
H         -6.36957        3.75406        0.97167
H         -5.67324        5.30261        0.43791
C         -3.01882        4.26619        0.36903
C         -1.90158        3.60757       -0.15788
C         -2.00253        2.28809       -0.64711
C         -4.38015        2.33664       -0.05562
C         -3.26214        1.68300       -0.58021
H         -5.34399        1.82286       -0.02384
H         -2.90467        5.29088        0.74067
H         -3.37630        0.66065       -0.95092
C         -0.79027        1.56644       -1.21552
C         -0.43462        0.31626       -0.39553
H         -0.26649        0.56721        0.66353
H          0.48354       -0.15621       -0.78215
H         -1.23837       -0.43857       -0.43608
C         -0.97257        1.22025       -2.70209
H          0.05711        2.26326       -1.13985
H         -0.05808        0.75607       -3.10690
H         -1.18817        2.12045       -3.29841
H         -1.80189        0.50909       -2.85611
O         -0.68315        4.22073       -0.21484
H         -0.75885        5.11176        0.15083
