36
TOLBUTAMIDE.gamout	Energy:   -1200.2127342
S          0.96760        1.93523        0.40851
O          0.96453        2.75059       -0.79765
O          1.35948        2.47926        1.71149
O         -1.17987        0.58620       -1.34773
N         -2.83107        0.90778        0.19717
N         -0.62518        1.40110        0.72571
C         -4.31043       -1.03868       -0.41416
C         -3.90905        0.42243       -0.65561
C         -4.84192       -1.32717        0.99065
C          1.91595        0.45484        0.09084
C         -5.21890       -2.79320        1.21135
C         -1.53249        0.93674       -0.23813
C          1.89449       -0.11879       -1.18099
C          2.71479       -0.06597        1.11127
C          3.48263       -1.80281       -0.41412
C          2.67596       -1.24916       -1.41899
C          3.49163       -1.19301        0.85059
C          4.33096       -3.01914       -0.67635
H         -3.44127       -1.68555       -0.62861
H         -5.08054       -1.30078       -1.16211
H         -4.78199        1.08323       -0.51274
H         -3.56957        0.54276       -1.69371
H         -5.72373       -0.68802        1.18644
H         -4.07930       -1.03117        1.73425
H         -3.06249        1.32337        1.09019
H         -4.34848       -3.45641        1.07235
H         -5.60493       -2.95992        2.22921
H         -5.99882       -3.11954        0.50250
H         -0.88996        1.57438        1.69051
H          1.25562        0.30492       -1.95508
H          2.72769        0.42362        2.08542
H          2.66378       -1.70995       -2.41030
H          4.12126       -1.60727        1.64308
H          4.08230       -3.83725        0.02037
H          4.19488       -3.39407       -1.70060
H          5.40218       -2.79451       -0.53812
