94
TORULENE.gamout	Energy:   -1554.4779538
C         -8.59585       -3.03964       -1.35208
C        -10.11466       -3.23535       -1.56072
C        -10.97133       -2.47953       -0.55754
C         -8.26088       -1.55259       -1.10427
C        -10.70522       -0.98750       -0.70370
C         -9.24313       -0.63355       -0.84038
C         -8.15568       -3.90356       -0.14903
C         -7.92737       -3.57062       -2.63924
C         -6.87557       -1.07009       -1.12362
C         -8.96457        0.84394       -0.63070
C         -5.68600       -1.73753       -1.11283
C         -4.37103       -1.11872       -1.09459
C         -4.27934        0.38437       -1.10312
C         -3.26186       -1.93245       -1.06739
C         -1.87696       -1.55275       -1.04443
C         -0.84344       -2.45237       -1.02306
C          0.56923       -2.15214       -0.99835
C          0.99805       -0.70842       -0.98705
C          1.46440       -3.20203       -0.98430
C          2.89466       -3.16421       -0.95740
C          3.67934       -4.29336       -0.94855
C          5.10895       -4.28853       -0.91150
C          5.95348       -5.37706       -0.90609
C          7.39768       -5.25731       -0.84296
C          5.44643       -6.79928       -0.96418
C          8.17310       -4.13213       -0.73905
C         10.49354       -3.12931       -0.54739
C          9.60365       -4.17571       -0.67395
C         15.41485       -2.09804       -0.14317
C         11.90522       -3.42945       -0.49053
C         14.31607       -2.91094       -0.29782
C         12.93189       -2.53340       -0.34951
C         10.06181       -1.68908       -0.46286
C         16.73316       -2.70229       -0.12972
C         15.31628       -0.60329        0.00993
C         20.43652       -2.15853        0.15806
C         17.92436       -2.05597        0.01798
C         19.20927       -2.72011        0.00358
C         21.68119       -2.99962        0.09423
C         20.67736       -0.69442        0.39881
H        -10.38211       -2.90000       -2.57854
H        -10.32877       -4.31511       -1.52438
H        -12.03922       -2.69260       -0.71835
H        -10.73925       -2.80376        0.47145
H        -11.24542       -0.59042       -1.58867
H        -11.12240       -0.43164        0.15452
H         -8.66220       -3.58927        0.77588
H         -7.07627       -3.84203        0.03938
H         -8.40687       -4.96144       -0.32977
H         -6.83210       -3.58890       -2.59099
H         -8.21188       -2.96077       -3.51144
H         -8.26596       -4.60199       -2.83045
H         -6.79680        0.01698       -1.11155
H         -9.90510        1.40420       -0.52221
H         -8.37223        1.02732        0.28252
H         -8.41338        1.29688       -1.47114
H         -5.66831       -2.82892       -1.10193
H         -3.24393        0.74507       -1.08162
H         -4.76055        0.80816       -2.00170
H         -4.79999        0.81827       -0.23164
H         -3.45180       -3.01253       -1.06129
H         -1.63858       -0.48553       -1.04365
H         -1.09672       -3.51941       -1.02321
H          0.58675       -0.17928       -0.11008
H          2.08833       -0.59253       -0.96186
H          0.62795       -0.17606       -1.88046
H          1.02664       -4.20735       -0.99315
H          3.39656       -2.19022       -0.94029
H          3.16320       -5.25955       -0.96437
H          5.56883       -3.29500       -0.88215
H          7.93497       -6.21352       -0.87618
H          4.35435       -6.86820       -1.01802
H          5.77591       -7.36924       -0.07757
H          5.85775       -7.32354       -1.84486
H          7.68787       -3.15249       -0.69729
H         10.04568       -5.17811       -0.72596
H         12.16350       -4.49237       -0.56798
H         14.51643       -3.98476       -0.39551
H         12.68915       -1.47006       -0.27274
H         10.50637       -1.09351       -1.27887
H         10.39497       -1.22818        0.48332
H          8.97315       -1.57023       -0.52180
H         16.75374       -3.79122       -0.25959
H         15.87051       -0.08556       -0.79208
H         14.28160       -0.24070       -0.01411
H         15.76060       -0.27318        0.96514
H         17.91887       -0.96999        0.14716
H         19.17935       -3.80443       -0.15856
H         21.45469       -4.06001       -0.08953
H         22.35553       -2.64895       -0.70898
H         22.26072       -2.93078        1.03375
H         19.75564       -0.10132        0.45077
H         21.31301       -0.26519       -0.39751
H         21.22834       -0.54232        1.34549
