18
TOS-1.gamout	Energy:    -894.0058831
O         -0.28826       -1.11773       -0.52251
S          0.34245       -1.07095        0.82298
O         -0.33460       -0.16289        1.78800
O          0.71532       -2.40050        1.37727
C          1.95676       -0.26286        0.50548
C          2.08170        1.12819        0.56800
C          3.29900        1.73956        0.26425
C          4.42099        0.97981       -0.10530
C          4.28367       -0.41481       -0.15219
C          3.06659       -1.03129        0.15143
C          5.73291        1.65195       -0.43161
H          5.63186        2.35921       -1.27424
H          6.50295        0.91496       -0.70907
H          6.12230        2.23194        0.42439
H          1.20903        1.70863        0.87545
H          3.38612        2.83082        0.31923
H          2.95619       -2.11767        0.13716
H          5.14922       -1.02786       -0.42653
