6
TRANS-1,2-DIIODOETHYLENE.gamout	Energy:    -672.6681484
C          1.16567       -0.31315        0.38847
C          0.23614       -1.16059       -0.05034
I         -0.64363       -1.18536       -1.95803
I          2.04413        1.25930       -0.69033
H          1.55090       -0.39523        1.40764
H         -0.14962       -1.94517        0.60469
