24
TRANS-1,3-DIMETHYLCYCLOHEXANE.gamout	Energy:    -314.0476610
C          0.99884        3.34076        2.98324
C          1.52323        1.91301        3.18391
C          2.96134        1.88143        3.73770
C          1.42873        1.06544        1.90126
C          4.04199        2.25708        2.71081
C          2.49317        1.43552        0.86287
C          5.44694        2.17535        3.31360
C          3.90149        1.37388        1.46280
H          1.03176        3.91034        3.92649
H         -0.04814        3.33003        2.63879
H          1.58219        3.90699        2.23939
H          0.87340        1.43831        3.94033
H          3.17688        0.86106        4.10608
H          3.03133        2.54615        4.61579
H          0.41917        1.15615        1.46610
H          1.55387        0.00098        2.17124
H          3.87117        3.30529        2.39838
H          2.42348        0.75878       -0.00448
H          2.30331        2.45212        0.47352
H          5.68186        1.14696        3.64043
H          5.54861        2.83345        4.19235
H          6.21590        2.47434        2.58226
H          4.12881        0.32762        1.74655
H          4.65240        1.66028        0.70775
