24
TRANS-1-METHYL-2-ETHYLCYCLOPENTANE.gamout	Energy:    -314.0367324
C          5.56674        2.95945        1.65283
C          4.43949        2.19064        0.95690
C          3.17309        2.00098        1.79908
C          2.38387        3.27140        2.20893
C          2.09931        1.11692        1.13587
C          2.13695        4.25806        1.06181
C          1.06661        2.67556        2.75284
C          0.79455        1.39007        1.92312
H          5.88102        2.45877        2.58472
H          5.26361        3.98582        1.91869
H          6.45421        3.03669        1.00421
H          4.17925        2.69168        0.00711
H          4.81090        1.19118        0.66822
H          3.47398        1.50747        2.74392
H          2.91649        3.80913        3.01058
H          2.38153        0.05241        1.13505
H          1.98268        1.40866        0.07773
H          1.51123        5.09648        1.40782
H          1.61333        3.78874        0.21227
H          3.07484        4.68770        0.67689
H          0.23575        3.39585        2.70108
H          1.19406        2.41720        3.81642
H          0.54804        0.54644        2.58734
H         -0.06500        1.51000        1.24564
