16
TRANS-1,3-HEXADIENE.gamout	Energy:    -234.2841692
C          5.06926        0.28786        2.51329
C          4.55959        0.73130        1.35354
C          3.20385        1.25412        1.13609
C          2.43354        1.88142        2.04293
C          1.04141        2.38535        1.79304
C          0.88983        3.89941        2.00304
H          6.10271       -0.06167        2.58003
H          4.47132        0.24942        3.42940
H          5.19547        0.69267        0.45980
H          2.80481        1.12665        0.12103
H          2.84513        2.06820        3.04472
H          0.73115        2.11407        0.76929
H          0.34390        1.86472        2.47773
H          1.17560        4.19301        3.02699
H          1.52885        4.46534        1.30575
H         -0.15289        4.21656        1.84278
