15
TRANS-2-PENTENE.gamout	Energy:    -196.2528979
C          1.74740        2.04915        0.99702
C          1.06609        1.02780        1.91923
C          3.24599        1.92732        0.98175
C          4.11091        2.88116        1.34795
C          5.60639        2.75504        1.33793
H          1.36221        1.90850       -0.03133
H          1.46237        3.07253        1.29735
H          1.32521       -0.00568        1.63332
H          1.37773        1.16851        2.96732
H         -0.03114        1.12002        1.87536
H          3.64463        0.95752        0.64821
H          3.70969        3.84797        1.68440
H          6.06857        3.51122        0.67808
H          6.03071        2.92006        2.34478
H          5.93051        1.76044        0.99249
