18
TRANS-2-HEXENE.gamout	Energy:    -235.5082382
C          2.84155        1.87111        1.85064
C          1.37686        1.53621        1.93050
C          0.93730        0.86243        3.24562
C          3.70814        1.32762        0.98605
C          1.10291        1.73164        4.49327
C          5.17145        1.64838        0.89712
H          3.21915        2.61816        2.56244
H          1.11219        0.87642        1.08664
H          0.78512        2.46352        1.79960
H          1.50448       -0.07724        3.37117
H         -0.12376        0.57353        3.14505
H          3.33044        0.58395        0.26966
H          0.54717        2.68040        4.39693
H          2.15916        1.98374        4.68267
H          0.72416        1.21539        5.38988
H          5.79099        0.74667        1.05102
H          5.47106        2.39835        1.64638
H          5.43586        2.04064       -0.10136
