24
TRANS-2-OCTENE.gamout	Energy:    -314.0205947
C          4.96792        3.89382        3.34516
C          4.07964        4.17996        2.11630
C          2.74028        3.43390        2.08764
C          5.45192        2.47366        3.45627
C          1.86492        3.80291        0.88490
C          6.73012        2.08513        3.36016
C          0.52468        3.06524        0.84464
C          7.22334        0.67141        3.46202
H          4.39897        4.15692        4.25828
H          5.83848        4.57068        3.31582
H          3.88118        5.26651        2.08089
H          4.65176        3.93926        1.20162
H          2.91759        2.34285        2.07902
H          2.18515        3.64627        3.02168
H          4.68643        1.70354        3.62515
H          1.68294        4.89363        0.89140
H          2.42410        3.59454       -0.04601
H          7.49823        2.85480        3.19645
H         -0.08135        3.27747        1.74223
H         -0.06918        3.36244       -0.03410
H          0.66710        1.97202        0.79595
H          6.39547       -0.03690        3.62573
H          7.75770        0.36419        2.54511
H          7.94052        0.55480        4.29423
