19
TRANS-BETA-METHYLSTYRENE.gamout	Energy:    -348.4850197
C          2.97566        1.45714        3.81526
C          3.75580        1.28195        4.97554
C          3.19155        1.39026        6.24446
C          1.60783        1.74548        3.98547
C          3.52194        1.35246        2.45110
C          1.03974        1.85463        5.25642
C          1.82979        1.67719        6.39406
C          4.78955        1.08615        2.08977
C          5.27525        0.99425        0.67448
H          4.82044        1.05713        4.88500
H          3.81987        1.24950        7.12763
H          0.98180        1.88579        3.09986
H          2.78781        1.51458        1.65182
H         -0.02503        2.07924        5.35675
H          1.39119        1.76124        7.39103
H          5.54773        0.91876        2.86486
H          6.07539        1.73043        0.47693
H          5.70900       -0.00001        0.46382
H          4.46280        1.17179       -0.04775
