27
TRANS-1-METHYL-4-ETHYLCYCLOHEXANE.gamout	Energy:    -353.3059692
C          3.14122        1.99103        2.14962
C          3.90675        2.12206        3.47589
C          4.04463        2.44031        0.98895
C          5.25434        1.38956        3.45189
C          5.39178        1.70743        0.96583
C          6.15256        1.84198        2.29239
H          2.91525        0.91547        1.99893
H          4.07809        3.19653        3.68120
H          3.29661        1.74101        4.31053
H          4.22386        3.52887        1.07934
H          3.52121        2.29202        0.02912
H          5.77669        1.53795        4.41221
H          5.07691        0.30056        3.36036
H          6.01280        2.08588        0.13621
H          5.22085        0.63298        0.76042
H          6.37278        2.91800        2.44183
C          1.80426        2.75273        2.14549
C          0.75462        2.24708        3.13997
C          7.48345        1.08752        2.26839
H          1.38151        2.70183        1.12601
H          2.00452        3.82436        2.33573
H         -0.19139        2.80020        3.02823
H          0.53274        1.17745        2.98245
H          1.08067        2.36587        4.18602
H          8.13157        1.44003        1.44916
H          8.03887        1.21648        3.21208
H          7.32335        0.00463        2.12309
