24
TRANS-3-OCTENE.gamout	Energy:    -314.0196259
C          5.36255        1.69498        1.85118
C          3.98479        2.11765        1.41950
C          3.43191        3.30099        2.23354
C          6.45530        1.72073        1.07768
C          2.02930        3.76705        1.82152
C          7.85453        1.31704        1.46162
C          0.91163        2.75628        2.08617
C          8.05065        0.82608        2.89400
H          5.45023        1.35349        2.89082
H          3.99453        2.38458        0.34730
H          3.29881        1.25582        1.52027
H          3.42619        3.03131        3.30698
H          4.13454        4.14689        2.13695
H          6.34496        2.06799        0.04083
H          1.80256        4.70138        2.36391
H          2.03672        4.03447        0.74828
H          8.19513        0.53566        0.75463
H          8.52675        2.17642        1.27124
H          1.03910        1.82983        1.50263
H         -0.07258        3.17454        1.82059
H          0.87415        2.47216        3.15212
H          7.77507        1.59934        3.62988
H          7.43904       -0.06659        3.10481
H          9.10363        0.55754        3.07156
