14
TRANS-2-BUTENE-1,4-DIOL.gamout	Energy:    -307.2389322
C          0.98725       -0.20496       -0.11802
C          0.35403        0.62955       -1.19708
C         -0.74765        1.37617       -1.04760
C         -1.38048        2.21082       -2.12676
O          2.34169        0.14243        0.10696
O         -2.73498        1.86391       -2.35213
H          0.37927       -0.14523        0.80803
H          1.00201       -1.26489       -0.42696
H          0.87922        0.62166       -2.16261
H         -1.27287        1.38414       -0.08208
H         -0.77229        2.15098       -3.05267
H         -1.39499        3.27072       -1.81774
H          2.36550        1.07892        0.34703
H         -2.75903        0.92745       -2.59229
