10
TRANS-CROTONITRILE.gamout	Energy:    -209.8658200
C          0.80023        3.06131        0.86249
C          2.14189        2.40497        0.81834
C          2.34187        1.07462        0.78344
C          3.64241        0.47908        0.74197
N          4.68961       -0.02387        0.70822
H          0.70324        3.69187        1.76384
H          0.66541        3.73339       -0.00326
H         -0.01847        2.32587        0.86284
H          3.01823        3.06418        0.81449
H          1.49408        0.37998        0.78572
