6
TRANS-1,2-DICHLOROETHYLENE.gamout	Energy:    -997.2808459
C          2.30288        1.69733        1.28139
C          1.62827        0.70067        0.70502
H          1.85038        2.40026        1.98398
Cl         3.98712        1.97072        0.96093
H          2.08060       -0.00235        0.00241
Cl        -0.05586        0.42780        1.02578
