12
TRANS-CROTONIC_ACID.gamout	Energy:    -306.0930788
C          2.43765        1.97945        1.32190
C          3.85071        1.54782        1.42485
C          2.12660        3.26552        1.10203
O          3.94827        0.21690        1.64449
O          4.82404        2.26114        1.33071
C          0.74395        3.81609        0.97918
H          1.67192        1.20652        1.43250
H          2.96344        3.96873        1.00487
H          4.89890        0.01847        1.69869
H          0.60647        4.30824       -0.00009
H          0.56455        4.59395        1.74249
H         -0.02548        3.03682        1.08836
