26
TRANS-STILBENE.gamout	Energy:    -539.9738161
C          5.32365        2.72757        1.89808
C          4.61362        3.54715        2.70786
C          3.33270        4.20227        2.41184
C          6.60402        2.07187        2.19437
C          2.79065        5.10468        3.34910
C          2.60333        3.97470        1.22723
C          7.23474        2.13779        3.45322
C          7.24721        1.33462        1.17994
C          1.57950        5.75720        3.11443
C          1.39527        4.62485        0.99167
C          8.45311        1.50376        3.68011
C          8.46862        0.69837        1.40581
C          0.87500        5.52102        1.93222
C          9.07944        0.78082        2.65865
H          4.93354        2.51728        0.89648
H          5.01642        3.77801        3.69982
H          3.33551        5.29648        4.27744
H          2.98224        3.27435        0.48106
H          6.76399        2.68750        4.27013
H          6.77714        1.26531        0.19522
H          1.18561        6.45234        3.85929
H          0.85113        4.42809        0.06496
H          8.91853        1.57120        4.66627
H          8.94330        0.13588        0.59868
H         -0.07404        6.02817        1.74393
H         10.03482        0.28370        2.84162
