16
TRANS-1,4-HEXADIENE.gamout	Energy:    -234.2804844
C          4.25007        3.14694        0.70340
C          3.84498        3.38454        1.95329
C          3.91125        2.39903        3.09408
C          2.56626        2.13251        3.72517
C          1.97618        0.93456        3.80710
C          0.64020        0.66043        4.43344
H          4.67510        2.18001        0.41216
H          4.17380        3.90929       -0.07704
H          3.42046        4.36844        2.19596
H          4.36080        1.45387        2.74674
H          4.58987        2.80929        3.86949
H          2.04569        3.00780        4.13941
H          2.50070        0.06517        3.38601
H          0.17705        1.57857        4.82829
H         -0.05888        0.21275        3.70441
H          0.72746       -0.06137        5.26531
