36
TRANS-2,2,4,6,6-PENTAMETHYL-3-HEPTENE.gamout	Energy:    -471.0350978
C          2.52562       -0.17966        0.02612
C          1.34417        0.30762       -0.86527
C         -2.49121       -0.27660       -0.04844
C         -0.01467        0.57719       -0.23686
C         -1.01814       -0.29629       -0.45635
C          3.71708       -0.44685       -0.90951
C          2.94905        0.87430        1.06206
C          2.15646       -1.48287        0.74702
C         -3.06985       -1.67917       -0.31439
C         -3.25706        0.73542       -0.92782
C         -2.72123        0.04950        1.43931
C         -0.16210        1.87334        0.53367
H          1.21178       -0.44837       -1.65559
H          1.67428        1.23103       -1.37691
H         -0.75374       -1.16271       -1.07429
H          4.01196        0.46807       -1.44898
H          4.59443       -0.80057       -0.34354
H          3.47256       -1.21411       -1.66255
H          2.16871        1.04993        1.81653
H          3.85344        0.54242        1.59817
H          3.18469        1.83925        0.58358
H          3.01336       -1.86476        1.32554
H          1.86010       -2.26601        0.02958
H          1.31691       -1.33723        1.44353
H         -2.97367       -1.95440       -1.37710
H         -4.13838       -1.71987       -0.05058
H         -2.54320       -2.44363        0.27943
H         -4.33395        0.72438       -0.68912
H         -2.89188        1.76317       -0.78055
H         -3.14187        0.49286       -1.99589
H         -3.79315       -0.04348        1.68018
H         -2.41589        1.07040        1.70404
H         -2.17130       -0.64898        2.09006
H         -1.13872        2.34618        0.36043
H         -0.06070        1.73487        1.62379
H          0.61251        2.59426        0.23302
