12
TRANS-2-BUTENE.gamout	Energy:    -156.9970318
C          1.96513        0.92698        0.88092
C          2.96079        1.65902        1.39564
C          4.42302        1.33930        1.28827
C          0.50293        1.24641        0.98909
H          2.22162        0.01152        0.32872
H          2.70425        2.57446        1.94784
H          4.59684        0.41453        0.71518
H          4.97835        2.15578        0.79269
H          4.88115        1.21167        2.28561
H          0.04264        1.36708       -0.00809
H         -0.05075        0.43275        1.49117
H          0.32956        2.17469        1.55664
