27
TRANS-1-METHYL-3-ETHYLCYCLOHEXANE.gamout	Energy:    -353.3024941
C         -0.06160        1.64258        0.01072
C          0.11577        3.16353       -0.03641
C          1.28190        0.89833        0.02185
C          0.98840        3.58823       -1.22275
C          2.35740        2.88049       -1.24131
C          2.14280        1.35521       -1.16683
C          3.33614        3.38403       -0.16257
C          1.08836       -0.62009        0.02634
C          3.79684        4.83254       -0.34045
H         -0.65845        1.35427        0.89233
H         -0.63801        1.31573       -0.87646
H         -0.86784        3.65686       -0.10096
H          0.56903        3.51035        0.91025
H          1.80923        1.17190        0.95565
H          1.11686        4.68264       -1.23171
H          0.45781        3.33646       -2.15872
H          2.82989        3.09743       -2.21639
H          3.11974        0.84234       -1.13822
H          1.64728        1.02265       -2.09807
H          2.89530        3.26582        0.84281
H          4.22300        2.72598       -0.17779
H          2.05329       -1.15206        0.06995
H          0.48968       -0.94571        0.89286
H          0.56446       -0.95858       -0.88504
H          4.54585        5.10465        0.42023
H          4.25835        4.99021       -1.33073
H          2.96544        5.55045       -0.24814
