22
TRANS-3-METHYLCYCLOHEXANOL.gamout	Energy:    -349.9179170
C          2.49268        2.60057       -0.10388
C          0.96287        2.62624       -0.08430
C          3.02926        1.17370        0.05674
C          0.40631        1.97523        1.17626
C          0.95159        0.55112        1.33475
C          3.12933        0.99187        2.60712
C          2.48943        0.46799        1.31457
O         -1.00812        1.98544        1.06700
H          2.86208        3.03560       -1.04599
H          2.88443        3.24556        0.70291
H          0.57797        3.65515       -0.15890
H          0.56106        2.07160       -0.95147
H          4.13188        1.17932        0.07469
H          2.73566        0.58476       -0.83054
H          0.71976        2.58401        2.05103
H          0.56356        0.10628        2.26893
H          0.53859       -0.04693        0.50382
H          4.22177        0.84897        2.58909
H          2.94314        2.06528        2.77247
H          2.73867        0.45401        3.48625
H          2.75667       -0.59978        1.23566
H         -1.37610        1.55888        1.85171
