24
TRANS-1,4-DIMETHYLCYCLOHEXANE.gamout	Energy:    -314.0394826
C          5.79757        0.82920        1.45012
C          4.83787        1.90832        1.95811
C          3.83990        1.35907        3.00849
C          4.07866        2.57595        0.78889
C          2.51262        0.93905        2.37111
C          2.76688        3.21024        1.25617
C          1.76218        2.14341        1.74971
C          0.74125        2.74871        2.71615
H          5.24680       -0.01748        1.00359
H          6.47272        1.22659        0.67421
H          6.42302        0.42690        2.26386
H          5.44469        2.68870        2.45181
H          4.29248        0.51096        3.54793
H          3.64157        2.13049        3.77193
H          4.72514        3.32499        0.30276
H          3.85373        1.81996        0.01302
H          2.71347        0.18370        1.59226
H          1.86972        0.44081        3.11489
H          2.98370        3.92048        2.07598
H          2.31333        3.80901        0.44945
H          1.20914        1.77105        0.86886
H          1.22535        3.07712        3.65269
H          0.24604        3.63010        2.27604
H         -0.04439        2.02314        2.98411
