40
TRI-N-BUTYLAMINE.gamout	Energy:    -527.5288144
C         48.75930       52.25436        0.01278
N         47.84802       53.11423        0.76277
C         47.59209       54.39423        0.11035
C         46.62915       52.42059        1.16722
C         49.62064       51.34256        0.89199
C         48.72212       55.41596        0.27307
C         45.96834       52.98227        2.42955
C         50.55207       50.43763        0.08151
C         48.39465       56.77141       -0.35992
C         44.71157       52.20766        2.83404
C         51.44108       49.54257        0.94670
C         49.50527       57.81055       -0.19644
C         44.03239       52.74587        4.09440
H         49.43244       52.89345       -0.58045
H         48.20342       51.63613       -0.73127
H         47.36312       54.26063       -0.97403
H         46.68204       54.82617        0.55505
H         46.88717       51.36719        1.36129
H         45.88163       52.39817        0.33775
H         48.97595       50.71218        1.53140
H         50.20602       51.97503        1.58257
H         48.92387       55.53951        1.35189
H         49.65873       55.02967       -0.16947
H         46.70944       52.96838        3.24847
H         45.70058       54.04443        2.28085
H         51.18701       51.05900       -0.57695
H         49.94510       49.80864       -0.59525
H         48.17962       56.62968       -1.43516
H         47.46047       57.16431        0.08269
H         44.96917       51.14274        2.98543
H         43.99011       52.22263        1.99617
H         52.08641       48.89970        0.32795
H         50.83924       48.88357        1.59535
H         52.09722       50.14022        1.60198
H         49.22682       58.77005       -0.66024
H         49.72024       58.00654        0.86794
H         50.44594       57.47583       -0.66591
H         43.72171       53.79721        3.96886
H         43.13235       52.16134        4.34159
H         44.70645       52.70369        4.96693
