14
TRI-(METHYL)-AMMONIUM+1.gamout	Energy:    -174.5956738
N         -2.86354        0.37782       -0.05814
C         -1.36527        0.36642       -0.12446
H         -3.20591        0.21071       -1.01354
C         -3.39420        1.71420        0.36848
C         -3.39451       -0.73423        0.79673
H         -3.02155        2.48279       -0.31999
H         -3.04438        1.92271        1.38838
H         -4.49075        1.68706        0.34689
H         -3.02068       -1.69103        0.41156
H         -4.49097       -0.71664        0.76549
H         -3.04601       -0.58259        1.82708
H         -1.03174        1.16093       -0.80334
H         -1.03146       -0.61101       -0.49394
H         -0.96642        0.54216        0.88359
