59
TRI-(HEXYL)-AMMONIUM+1.gamout	Energy:    -763.4610448
N         -2.73421        0.32724       -0.44993
C         -1.38946       -0.37563       -0.40101
H         -3.03306        0.32084       -1.43505
C         -2.63456        1.78457       -0.03327
C         -3.79981       -0.42040        0.33271
H         -1.64227        2.13531       -0.34548
H         -2.66276        1.79186        1.06716
C         -3.72584        2.66180       -0.64020
C         -4.35295       -1.63698       -0.40673
H         -4.60300        0.29975        0.53752
H         -3.33853       -0.69294        1.29439
C         -0.49455       -0.06415       -1.59821
H         -1.59864       -1.45253       -0.35377
H         -0.92245       -0.08320        0.55225
C         -3.64519        4.11054       -0.13171
H         -4.72510        2.25358       -0.40572
H         -3.63088        2.65132       -1.74207
C          0.84578       -0.81517       -1.50896
H         -3.74356        4.10901        0.96944
C         -4.71339        5.03036       -0.73856
H         -2.64143        4.51992       -0.34791
H         -5.71551        4.60449       -0.54120
H         -4.60154        5.04315       -1.83914
C         -4.66164        6.46755       -0.20530
H         -4.78001        6.45088        0.89373
C         -5.72332        7.38038       -0.81933
H         -3.65736        6.88962       -0.39348
H         -6.74176        7.00370       -0.62504
H         -5.60173        7.46140       -1.91289
H         -5.66027        8.39719       -0.40355
H         -4.78601       -1.30815       -1.37040
C         -5.42921       -2.37038        0.41300
H         -3.54089       -2.34434       -0.65056
H         -6.24198       -1.66421        0.66292
H         -4.99167       -2.68721        1.37747
C         -6.01701       -3.59334       -0.30735
H         -6.45650       -3.27086       -1.26991
C         -7.07877       -4.34247        0.50936
H         -5.19861       -4.29086       -0.56657
H         -7.89738       -3.64632        0.76813
H         -6.63766       -4.66099        1.47171
C         -7.65430       -5.56060       -0.21542
H         -8.15118       -5.27456       -1.15763
H         -8.39971       -6.07541        0.40903
H         -6.86672       -6.29218       -0.46273
C          1.76699       -0.58637       -2.71551
H          1.24031       -0.89160       -3.63914
C          3.09836       -1.34323       -2.61916
H          1.96881        0.49579       -2.82468
H          2.89278       -2.42302       -2.50161
H          3.62573       -1.03452       -1.69792
C          4.00982       -1.12666       -3.82783
H          3.52654       -1.45734       -4.76257
H          4.94772       -1.69194       -3.72158
H          4.27552       -0.06303       -3.94908
H          0.64623       -1.89736       -1.40275
H          1.36746       -0.50912       -0.58368
H         -0.30257        1.02124       -1.67055
H         -1.01720       -0.35691       -2.52856
