7
TRICHLOROACETYL_CHLORIDE.gamout	Energy:   -1991.2264628
Cl         0.93794        0.69533       -0.85715
Cl        -1.96680        0.98102       -0.80364
Cl        -0.38103        1.45174        1.63494
Cl        -2.10059       -1.33631        1.51110
O          0.08247       -1.86318        0.19042
C         -0.52155        0.49112        0.13127
C         -0.67011       -1.01308        0.51703
