6
TRICHLOROETHYLENE.gamout	Energy:   -1456.6784849
C          1.38378        1.10457        0.05721
C          2.60311        1.66224        0.09964
Cl         4.02283        0.66032        0.06612
Cl         2.88710        3.36356        0.18832
Cl        -0.09169        1.99795        0.08484
H          1.27461        0.02063        0.00153
