5
TRICHLOROFLUOROMETHANE.gamout	Energy:   -1517.7656473
Cl         1.73694        2.17085        2.66337
C          1.24021        1.14011        1.29255
Cl         0.01159       -0.04362        1.81950
Cl         0.60351        2.14637       -0.03814
F          2.30766        0.47430        0.85032
