40
TRIDECANOATE-1.gamout	Energy:    -660.0390371
O          7.73697        0.48125        0.00928
O          6.56578       -1.45765       -0.05107
C         -1.08943       -0.32196       -0.00479
C         -2.39403        0.48544        0.01045
C          0.18342        0.53528        0.01643
C         -3.66604       -0.37223       -0.00796
C          1.49070       -0.26877       -0.00488
C         -4.96994        0.43638        0.00511
C          2.76707        0.58608        0.02027
C         -6.24246       -0.41972       -0.01262
C          4.07425       -0.21786       -0.00727
C         -7.54343        0.39037        0.00088
C          5.35142        0.62020        0.01916
C         -8.80614       -0.47394       -0.01797
C          6.70000       -0.21318       -0.01097
H         -1.07594       -0.97202       -0.90052
H         -1.07873       -1.01057        0.86174
H         -2.40691        1.17212       -0.85757
H         -2.40862        1.13706        0.90500
H          0.16736        1.22718       -0.84780
H          0.16791        1.18277        0.91435
H         -3.65476       -1.05771        0.86090
H         -3.65208       -1.02471       -0.90182
H          1.50327       -0.96303        0.85741
H          1.50430       -0.91414       -0.90414
H         -4.98160        1.12141       -0.86414
H         -4.98420        1.08912        0.89882
H          2.74650        1.28578       -0.83896
H          2.74964        1.22943        0.92246
H         -6.23344       -1.10481        0.85670
H         -6.23127       -1.07209       -0.90671
H          4.10260       -0.86475       -0.90247
H          4.10547       -0.92473        0.84111
H         -7.55794        1.04129        0.89488
H         -7.55513        1.07507       -0.86761
H          5.38098        1.26294        0.92095
H          5.37947        1.32228       -0.83733
H         -8.84826       -1.14495        0.85729
H         -8.84699       -1.10809       -0.92026
H         -9.71818        0.14441       -0.00561
