28
TRIETHYLENE_TETRAMINE.gamout	Energy:    -457.8136532
N         -0.04793       -0.13816       -0.01508
C          1.21581        0.58995        0.01217
C          0.96863        2.09725        0.04319
N          2.21339        2.84515        0.05039
C          2.05080        4.28896        0.04383
C          3.40002        5.00278       -0.01108
N          3.23741        6.44722       -0.01322
C          4.48401        7.19419       -0.03054
C          4.23731        8.70181        0.01578
N          5.50207        9.43073        0.00203
H          0.11482       -1.13703       -0.14096
H         -0.53283       -0.03963        0.87831
H          1.78416        0.35144       -0.90220
H          1.88160        0.32000        0.86496
H          0.30957        2.33909        0.91262
H          0.38850        2.37250       -0.85449
H          2.76912        2.57144        0.86205
H          1.46067        4.56248       -0.85143
H          1.47743        4.68024        0.91468
H          3.99186        4.72546        0.88235
H          3.97116        4.61413       -0.88398
H          2.67410        6.71967       -0.82018
H          5.07367        6.90016        0.85889
H          5.12964        6.96927       -0.90868
H          3.66336        8.99586       -0.88258
H          3.57953        8.91756        0.88465
H          5.33666       10.43493       -0.06721
H          5.99556        9.28751        0.88474
