24
TRIETHYLENE_GLYCOL.gamout	Energy:    -537.2070048
C         -3.03971        1.74473        0.54957
C         -3.61952        0.38406        0.89207
O         -2.92366       -0.58689        0.15440
C         -3.35904       -1.90239        0.37626
C         -2.51775       -2.82513       -0.48432
O         -2.95292       -4.14049       -0.26250
C         -2.25727       -5.11083       -1.00063
C         -2.83778       -6.47022       -0.65619
O         -2.13036       -7.43557       -1.40335
O         -3.74929        2.70787        1.29745
H         -1.95666        1.73626        0.78721
H         -3.13480        1.90228       -0.54391
H         -3.52616        0.20725        1.98383
H         -4.70348        0.37423        0.65381
H         -3.25216       -2.19051        1.44274
H         -4.43044       -2.02474        0.11374
H         -2.62471       -2.53687       -1.55075
H         -1.44637       -2.70258       -0.22186
H         -2.35160       -4.93434       -2.09237
H         -1.17312       -5.10084       -0.76321
H         -2.74181       -6.62616        0.43742
H         -3.92105       -6.46046       -0.89271
H         -2.48706       -8.30733       -1.19588
H         -3.39361        3.58045        1.09173
