26
TRIETHYL_ORTHOFORMATE.gamout	Energy:    -501.3685566
O          1.33533       -0.15381       -0.05810
O         -0.40556        1.27423       -0.15532
O         -0.58427       -0.64019        1.01991
C         -0.04441       -0.06115       -0.11558
C          1.86141       -1.46606       -0.18123
C         -0.09142        1.95183       -1.36136
C         -1.99541       -0.78116        1.01503
C          3.36996       -1.38724       -0.06520
C         -0.55258        3.38930       -1.23515
C         -2.41332       -1.44861        2.30922
H         -0.42695       -0.58767       -1.03088
H          1.56173       -1.90097       -1.15788
H          1.44107       -2.11367        0.60836
H         -0.59270        1.45152       -2.21659
H          0.99637        1.90252       -1.54514
H         -2.31135       -1.38769        0.14007
H         -2.47106        0.21032        0.91252
H          3.81444       -2.39135       -0.14842
H          3.79389       -0.75333       -0.86005
H          3.65579       -0.95735        0.90727
H         -0.32854        3.94658       -2.15834
H         -1.63791        3.43852       -1.05363
H         -0.04098        3.88509       -0.39571
H         -3.50679       -1.57770        2.33896
H         -1.94322       -2.43961        2.40983
H         -2.11228       -0.83559        3.17289
