6
TRIFLUOROETHYLENE.gamout	Energy:    -375.8460251
C         32.00997       18.00902       -0.00000
C         30.67804       17.99375        0.00000
F         29.95295       19.09441        0.00000
F         29.93677       16.90829       -0.00000
F         32.71162       16.87251        0.00000
H         32.58574       18.93523       -0.00000
