9
TRIFLUOROPROPENE.gamout	Energy:    -415.1411698
C         39.98414       19.88291       -0.25511
C         38.50157       19.98652       -0.06003
F         38.17367       21.14637        0.54216
F         37.85568       19.96586       -1.24214
F         38.00631       18.98795        0.68835
C         40.72053       18.90122        0.26158
H         40.41523       20.68580       -0.86075
H         41.79976       18.85969        0.09740
H         40.26723       18.11002        0.86395
