5
TRIFLUOROCHLOROMETHANE.gamout	Energy:    -797.2489926
Cl         2.46405        0.02174        0.04187
C          1.23433        0.62278        1.17434
F          1.37743        0.03810        2.35633
F          1.35652        1.93458        1.32954
F          0.01937        0.35890        0.71226
