6
TRIFLUOROACETONITRILE.gamout	Energy:    -429.9522330
C          1.14626        0.93618        1.20621
C          2.57541        1.01349        0.79837
F          2.80257        2.14952        0.14074
F          2.88075       -0.01156        0.00459
F          3.36096        0.97359        1.87341
N          0.03664        0.87622        1.52294
