17
TRIFLUORO-ISOPROPYL_ACETATE.gamout	Energy:    -643.9548778
C          0.02607       17.18112       -0.07589
C          1.42582       17.71065        0.17225
O          1.30365       19.16598        0.16536
C          2.03556       17.26082        1.49154
C          2.36303       19.88391       -0.17414
C          1.99911       21.38807       -0.13246
O          3.45019       19.48187       -0.48485
F          3.07520       22.13010       -0.37204
F          1.07235       21.66722       -1.05954
F          1.50699       21.72265        1.06731
H         -0.36815       17.56490       -1.02792
H          0.03821       16.08158       -0.12218
H         -0.65725       17.48852        0.73130
H          2.09705       17.44091       -0.65831
H          3.04905       17.66675        1.61821
H          2.10809       16.16224        1.51374
H          1.41168       17.58449        2.33964
