21
TRIFLUOROMETHYLCYCLOHEXANE.gamout	Energy:    -572.2076259
C         -3.99255        0.96616        1.19717
C         -5.11561        2.00368        1.26596
C         -5.40481        2.59691       -0.11555
C         -5.71346        1.50670       -1.14690
C         -4.58579        0.46654       -1.21620
C         -4.29844       -0.12829        0.17100
C         -4.88612       -0.61782       -2.23847
F         -5.07806       -0.10091       -3.47027
F         -5.99488       -1.32005       -1.92499
F         -3.87421       -1.50365       -2.33557
H         -3.82905        0.51096        2.18654
H         -3.04611        1.46924        0.92494
H         -6.03241        1.52370        1.65601
H         -4.85477        2.80269        1.97799
H         -6.24811        3.30295       -0.05940
H         -4.52957        3.18188       -0.45379
H         -6.65142        0.99204       -0.87366
H         -5.87109        1.94901       -2.14145
H         -3.66909        0.96070       -1.58627
H         -5.18059       -0.70557        0.49874
H         -3.46044       -0.83703        0.10323
