10
TRIMETHYLENESULFIDE.gamout	Energy:    -515.7499159
C          0.66945        1.35218        0.81030
C          1.74038        2.44468        1.01232
C          2.96604        1.52321        0.83699
S          1.92138        0.00805        1.08898
H         -0.16411        1.34272        1.52783
H          0.26454        1.30992       -0.21314
H          1.68644        3.29357        0.31081
H          1.69886        2.84503        2.03688
H          3.39674        1.54348       -0.17652
H          3.77436        1.63768        1.57396
