13
TRIMETHYLENE_DICYANIDE.gamout	Energy:    -303.2057532
C          1.27047       -0.74653       -0.00001
C          0.00023        0.12200        0.00001
C         -1.27032       -0.74616        0.00001
C         -2.50086        0.04898       -0.00000
N         -3.46464        0.69204       -0.00001
C          2.50080        0.04875       -0.00000
N          3.46430        0.69222        0.00000
H          1.28817       -1.40763        0.88416
H          1.28816       -1.40760       -0.88421
H          0.00035        0.77852        0.88427
H          0.00034        0.77854       -0.88423
H         -1.28802       -1.40729       -0.88414
H         -1.28803       -1.40729        0.88417
