13
TRIMETHYLAMINE.gamout	Energy:    -174.2217550
N         -0.00020       -0.00026        0.30164
C         -0.53809       -1.28157       -0.10167
C         -0.83995        1.10719       -0.10175
C          1.37839        0.17443       -0.10199
H         -1.55732       -1.40796        0.29805
H          0.08526       -2.09836        0.29707
H         -0.59303       -1.41021       -1.20995
H         -1.85985        0.97585        0.29485
H         -0.92200        1.21942       -1.21022
H         -0.44000        2.05265        0.29934
H          1.77279        1.12309        0.29640
H          1.51659        0.19158       -1.21035
H          1.99791       -0.64441        0.29798
