13
TRIMETHYL_ALUMINUM.gamout	Energy:    -361.8952587
C         -0.97317       -0.06235       -0.00178
Al         0.99981       -0.09632       -0.00089
C          1.98522       -0.06612        1.70829
C          1.98881       -0.05913       -1.70787
H         -1.40929       -0.54142       -0.89563
H         -1.34113        0.98226        0.00046
H         -1.40962       -0.54528        0.88982
H          1.42986       -0.54142        2.53546
H          2.17145        0.97997        2.01994
H          2.97488       -0.54997        1.63944
H          1.43527       -0.53070       -2.53840
H          2.97814       -0.54363       -1.63875
H          2.17613        0.98820       -2.01468
