20
TRIMETHYL_GLYCINIUM+1.gamout	Energy:    -402.1920147
O          2.47452       -0.61426        0.73387
O          1.61554        0.49829       -1.02715
N         -1.08064       -0.03203       -0.06643
C          0.15759       -0.50288        0.64905
C         -1.16637       -0.62791       -1.44770
C         -2.26923       -0.48958        0.73271
C         -1.11339        1.47106       -0.16016
C          1.48871       -0.12963       -0.00847
H          0.10439       -1.59738        0.73943
H          0.14011       -0.09166        1.66873
H         -1.13855       -1.72148       -1.36177
H         -2.11565       -0.31554       -1.89876
H         -0.32229       -0.26592       -2.04277
H         -2.21638       -0.05228        1.73688
H         -3.18234       -0.15468        0.22639
H         -2.25955       -1.58422        0.79860
H         -1.05266        1.88831        0.85267
H         -0.26735        1.80485       -0.76819
H         -2.06124        1.76278       -0.62621
H          3.33457       -0.38486        0.33188
