167
TRIOLEIN.gamout	Energy:   -2682.3709205
C         -1.19963        2.82312        1.19583
C         -0.06224        1.91333        0.72205
O         -0.70128        3.97289        1.88040
C         -0.59914        0.68864       -0.00213
O          0.94348        2.62176       -0.02763
O          0.47993       -0.23435       -0.15733
C         -0.39046        3.82891        3.18991
C          0.63391        3.25529       -1.17757
C          0.18865       -1.41085       -0.75423
O         -0.50628        2.78350        3.78182
C          0.12547        5.12473        3.77437
C         -0.76905        6.34838        3.51707
O         -0.46856        3.25856       -1.67344
C          1.84252        3.96640       -1.74723
C          3.06676        3.06369       -1.98128
O         -0.92100       -1.70517       -1.12488
C          1.41713       -2.28927       -0.86087
C          1.44838       -3.39162        0.21837
C          2.69302       -4.28798        0.13309
C          2.73844       -5.40729        1.18665
C          4.01155       -6.26747        1.13146
C          4.06273       -7.39536        2.17212
C          5.36533       -8.21719        2.12892
C          5.42385       -9.30849        3.16640
C          5.17687      -10.61064        2.96249
C          4.26580        3.81872       -2.57340
C          5.50188        2.93956       -2.82362
C          6.70629        3.70266       -3.39788
C          7.93998        2.83128       -3.67328
C          9.13756        3.62043       -4.23673
C         10.34817        2.76713       -4.51531
C         10.70805        2.27250       -5.70884
C         -2.26073       14.56294        5.25950
C         -1.54577       13.96448        4.29526
C         -0.63546       12.77614        4.46598
C         -1.29357       11.44556        4.05219
C         -0.38817       10.22004        4.23003
C         -1.03534        8.89494        3.79894
C         -0.14376        7.66159        4.00752
C         -2.27403       14.19220        6.71973
C         -1.37312       15.09816        7.58114
C         -1.36196       14.73264        9.07183
C         -0.45541       15.62690        9.93210
C         -0.41997       15.24757       11.42090
C          0.49282       16.13655       12.27745
C          0.53299       15.74892       13.76053
C          1.44847       16.63868       14.60386
C          4.81366      -11.25174        1.64726
C          6.02708      -11.82650        0.88886
C          5.66377      -12.52333       -0.43025
C          6.86962      -13.08584       -1.20117
C          6.50812      -13.78404       -2.52223
C          7.71454      -14.33953       -3.29381
C          7.35167      -15.03204       -4.61333
C          8.56228      -15.58049       -5.37231
C          9.98304        2.48542       -7.01372
C         10.54423        3.65453       -7.84844
C          9.81559        3.87271       -9.18256
C         10.34497        5.05568      -10.01074
C          9.60030        5.28472      -11.33603
C         10.11484        6.47798      -12.15483
C          9.35984        6.70927      -13.46934
C          9.87588        7.90475      -14.27309
H         -1.84670        2.23850        1.86598
H         -1.77738        3.20928        0.34850
H          0.48884        1.56840        1.60848
H         -1.02239        0.94604       -0.98354
H         -1.40081        0.22965        0.59907
H          1.11993        5.30162        3.32408
H          0.28077        4.95010        4.84891
H         -1.74611        6.19434        4.00984
H         -0.97463        6.41686        2.43616
H          2.10892        4.77317       -1.04073
H          1.51158        4.43993       -2.68307
H          2.78074        2.23563       -2.65487
H          3.35342        2.59555       -1.02491
H          2.31119       -1.65175       -0.78699
H          1.39804       -2.75117       -1.86127
H          0.53506       -4.00500        0.12337
H          1.40280       -2.91686        1.21511
H          3.59786       -3.65900        0.23208
H          2.74703       -4.73592       -0.87716
H          1.85096       -6.05646        1.06519
H          2.64874       -4.96260        2.19586
H          4.89512       -5.61440        1.26345
H          4.11240       -6.70498        0.11995
H          3.93530       -6.97081        3.18532
H          3.20737       -8.07928        2.02449
H          6.22160       -7.53361        2.28091
H          5.49168       -8.63830        1.11757
H          5.67415       -8.98956        4.18590
H          5.27588      -11.28775        3.81980
H          3.96352        4.29665       -3.52438
H          4.53848        4.64825       -1.89393
H          5.22819        2.11747       -3.51153
H          5.79902        2.45066       -1.87663
H          6.98379        4.51696       -2.70192
H          6.40516        4.20337       -4.33776
H          7.67864        2.03139       -4.38982
H          8.24606        2.31369       -2.74512
H          9.41349        4.41247       -3.51567
H          8.82054        4.14512       -5.15351
H         10.97582        2.52027       -3.65005
H         11.62655        1.67478       -5.75633
H         -2.88016       15.42257        4.97504
H         -1.64615       14.34949        3.27286
H         -0.29042       12.69934        5.51058
H          0.27635       12.92765        3.85841
H         -1.62016       11.51671        2.99811
H         -2.21772       11.31283        4.64364
H         -0.08042       10.14909        5.29068
H          0.54729       10.36884        3.65787
H         -1.31773        8.96173        2.73137
H         -1.98358        8.75516        4.35145
H          0.11034        7.57123        5.08051
H          0.81894        7.81289        3.48321
H         -1.95954       13.14338        6.85092
H         -3.31112       14.24953        7.09951
H         -1.69090       16.15033        7.45869
H         -0.34451       15.04857        7.17980
H         -1.04177       13.67878        9.17990
H         -2.39526       14.77380        9.46590
H         -0.78380       16.67897        9.83266
H          0.57409       15.59608        9.52731
H         -0.09404       14.19445       11.51828
H         -1.44758       15.28193       11.83021
H          0.16708       17.19048       12.18750
H          1.52082       16.10524       11.86834
H          0.85937       14.69628       13.85247
H         -0.49208       15.78177       14.17410
H          2.49314       16.59337       14.25115
H          1.44213       16.33095       15.66122
H          1.13382       17.69569       14.56390
H          4.29490      -10.52669        0.99732
H          4.08828      -12.06520        1.83099
H          6.56500      -12.53495        1.54571
H          6.73718      -11.00283        0.69226
H          5.12017      -11.80918       -1.07792
H          4.94896      -13.34245       -0.22431
H          7.41472      -13.79745       -0.55219
H          7.58209      -12.26523       -1.40864
H          5.96099      -13.07300       -3.17034
H          5.79820      -14.60741       -2.31673
H          8.26286      -15.05361       -2.64991
H          8.42507      -13.51655       -3.49973
H          6.80580      -14.32023       -5.26026
H          6.64220      -15.85534       -4.40973
H          9.27359      -14.77746       -5.63065
H          8.25861      -16.06960       -6.31098
H          9.11139      -16.32585       -4.77173
H          8.90921        2.65990       -6.83128
H         10.03977        1.55732       -7.61185
H         11.62080        3.48548       -8.03637
H         10.48944        4.57492       -7.23870
H          8.73757        4.02485       -8.98304
H          9.87826        2.94794       -9.78756
H         11.42037        4.89991      -10.22071
H         10.29140        5.97764       -9.40087
H          8.52296        5.42846      -11.12679
H          9.66397        4.36778      -11.95255
H         11.19000        6.33434      -12.37550
H         10.05703        7.39511      -11.53778
H          8.28466        6.85109      -13.25232
H          9.42073        5.79648      -14.09083
H          9.80083        8.84228      -13.69573
H          9.30029        8.04094      -15.20183
H         10.93526        7.77649      -14.55463
