77
TRIOCTYLAMMONIUM+1.gamout	Energy:    -998.9966667
N          1.67077        0.56011        0.28689
C          1.37020        1.87654        0.99227
C          0.68340        1.67576        2.33886
C          0.43367        3.00789        3.06120
C         -0.24207        2.84924        4.43068
C         -0.45702        4.17876        5.16669
C         -1.12508        4.02773        6.53992
C         -1.32573        5.35480        7.28145
C         -1.99377        5.19457        8.64771
C          0.94224        0.42598       -1.03773
C         -0.57747        0.35006       -0.91553
C         -1.24041        0.21475       -2.29646
C         -2.77255        0.13467       -2.23698
C         -3.43738        0.03533       -3.61816
C         -4.97085       -0.03727       -3.56865
C         -5.63457       -0.12038       -4.94957
C         -7.16226       -0.18650       -4.89286
C          3.16008        0.31153        0.12901
C          3.90099        0.08853        1.44437
C          5.40040       -0.17185        1.21926
C          6.15144       -0.51301        2.51439
C          7.66100       -0.72431        2.32393
C          8.39433       -1.13055        3.60999
C          9.90373       -1.33214        3.42950
C         10.61847       -1.75830        4.71231
H          1.31251       -0.18838        0.89471
H          0.75012        2.47537        0.31267
H          2.32621        2.40393        1.10956
H          1.31092        1.02286        2.97243
H         -0.27577        1.14776        2.18751
H         -0.18579        3.65827        2.41680
H          1.39854        3.53242        3.18607
H          0.36958        2.17714        5.06112
H         -1.21492        2.33980        4.30124
H         -1.06850        4.85054        4.53530
H          0.51812        4.68659        5.28918
H         -0.51740        3.34838        7.16746
H         -2.10436        3.52755        6.41762
H         -1.93108        6.03409        6.65335
H         -0.34661        5.85307        7.40476
H         -2.99213        4.73461        8.55607
H         -2.12185        6.16796        9.14589
H         -1.39498        4.55500        9.31800
H          1.33360       -0.48681       -1.50766
H          1.26327        1.28204       -1.65110
H         -0.97290        1.24879       -0.41206
H         -0.85507       -0.51541       -0.28498
H         -0.84392       -0.68291       -2.80479
H         -0.94107        1.07617       -2.92144
H         -3.16191        1.02513       -1.70828
H         -3.06846       -0.73613       -1.62261
H         -3.04715       -0.85493       -4.14683
H         -3.13268        0.90560       -4.22952
H         -5.35931        0.84902       -3.03117
H         -5.27634       -0.91275       -2.96445
H         -5.24923       -1.00665       -5.48711
H         -5.32663        0.75372       -5.55275
H         -7.50720       -1.07194       -4.33170
H         -7.59435       -0.24526       -5.90370
H         -7.58939        0.70419       -4.40137
H          3.55516        1.17413       -0.42940
H          3.25191       -0.57349       -0.51494
H          3.45700       -0.77581        1.97266
H          3.78484        0.95997        2.11057
H          5.85459        0.71900        0.74825
H          5.52442       -0.99752        0.49551
H          5.70826       -1.42551        2.95557
H          5.98599        0.29177        3.25521
H          8.11200        0.20236        1.92183
H          7.82582       -1.49951        1.55209
H          7.94680       -2.06375        4.00261
H          8.21982       -0.36271        4.38785
H         10.35389       -0.39571        3.05061
H         10.07864       -2.08954        2.64336
H         10.49848       -1.00535        5.50946
H         11.69814       -1.89185        4.54143
H         10.22090       -2.71322        5.09563
