76
TRIOCTYLAMINE.gamout	Energy:    -998.6037720
N          0.36092        0.34083        0.62605
C          1.79248        0.05573        0.65444
C          0.07206        1.76050        0.43767
C         -0.36972       -0.23922        1.75000
C          2.16308       -1.37516        0.24463
C          0.16336        2.23861       -1.01646
C         -1.82933       -0.57445        1.42146
C          3.67738       -1.62017        0.22949
C         -0.20000        3.72011       -1.17705
C         -2.60422       -1.16315        2.60556
C          4.08481       -3.05370       -0.14093
C         -0.16684        4.23105       -2.62482
C         -4.06422       -1.51180        2.28160
C          5.60318       -3.28955       -0.15827
C         -0.54260        5.71365       -2.77327
C         -4.86428       -2.07583        3.46579
C          6.02149       -4.72506       -0.50520
C         -0.52946        6.23148       -4.21829
C         -6.32065       -2.42420        3.12973
C          7.53932       -4.94500       -0.52531
C         -0.91332        7.71041       -4.35399
C         -7.12443       -2.97553        4.31362
C          7.95187       -6.37917       -0.86422
C         -0.90027        8.22107       -5.79672
C         -8.57362       -3.32052        3.96454
H          2.22873        0.28302        1.65729
H          2.28837        0.74825       -0.04468
H          0.72730        2.39153        1.08394
H         -0.95432        1.94952        0.79108
H         -0.32866        0.42693        2.64434
H          0.13736       -1.16910        2.05146
H          1.72985       -1.57169       -0.75204
H          1.68857       -2.09898        0.93187
H         -0.50798        1.60909       -1.62670
H          1.18225        2.06923       -1.41146
H         -1.83474       -1.27595        0.56852
H         -2.34826        0.33459        1.06614
H          4.09210       -1.37286        1.22538
H          4.15354       -0.91211       -0.47538
H          0.48567        4.33108       -0.55996
H         -1.20982        3.89136       -0.75748
H         -2.57920       -0.44687        3.44854
H         -2.08432       -2.07004        2.96891
H          3.61633       -3.75938        0.57114
H          3.66670       -3.30882       -1.13342
H          0.84243        4.06753       -3.04776
H         -0.85222        3.61956       -3.24185
H         -4.57381       -0.60762        1.89772
H         -4.08526       -2.24051        1.44904
H          6.02170       -3.01957        0.83033
H          6.06880       -2.59110       -0.87950
H          0.14809        6.32614       -2.16281
H         -1.54759        5.87605       -2.33955
H         -4.84910       -1.34550        4.29725
H         -4.35485       -2.97889        3.85266
H          5.56433       -5.42526        0.21990
H          5.60305       -5.00136       -1.49215
H          0.47597        6.07665       -4.65394
H         -1.21879        5.62070       -4.83213
H         -6.82936       -1.52396        2.73507
H         -6.33782       -3.16194        2.30470
H          7.95856       -4.66437        0.45900
H          7.99578       -4.24893       -1.25343
H         -0.22443        8.32166       -3.74169
H         -1.91744        7.86459       -3.91733
H         -7.11079       -2.23783        5.13756
H         -6.61713       -3.87475        4.70997
H          9.04768       -6.48985       -0.86955
H          7.54855       -7.09887       -0.13137
H          7.58224       -6.68071       -1.85927
H         -1.18064        9.28493       -5.84731
H          0.10015        8.11805       -6.25043
H         -1.60868        7.65949       -6.42950
H         -9.11679       -3.70570        4.84176
H         -9.12096       -2.43574        3.59671
H         -8.62647       -4.09081        3.17604
