155
TRIPALMITIN.gamout	Energy:   -2450.5156924
O         -5.92584        3.13469        1.03617
C         -6.81570        2.06037        0.74766
C         -5.49375        3.30037        2.31107
O         -5.87701        2.63927        3.24264
C         -4.48381        4.42368        2.37947
C         -5.04866        5.79097        1.95348
C         -4.00290        6.91237        1.98376
C         -4.55858        8.28710        1.58637
C         -3.50906        9.40725        1.57678
C         -4.06574       10.78424        1.18924
C         -3.01328       11.90123        1.16612
C         -3.56852       13.27985        0.78244
C         -2.51371       14.39460        0.75451
C         -3.06676       15.77464        0.37219
C         -2.00957       16.88722        0.34236
C         -2.55949       18.26910       -0.03856
C         -1.50185       19.38012       -0.06894
C         -2.05286       20.76019       -0.44650
C         -0.98880       21.85934       -0.47370
C         -6.16471        1.11414       -0.24687
C         -7.15794        0.05161       -0.70927
O         -5.04480        0.49826        0.40509
O         -6.65952       -0.71631       -1.80085
C         -3.90907        0.29513       -0.30417
C         -2.82964       -0.32261        0.56172
O         -3.79057        0.56545       -1.47408
C         -2.83100       -1.86601        0.52700
C         -1.72714       -2.48373        1.40054
C         -1.67301       -4.02038        1.36863
C         -0.58146       -4.62429        2.26812
C         -0.50452       -6.15934        2.23274
C          0.57894       -6.75578        3.14639
C          0.66895       -8.28985        3.10803
C          1.74795       -8.88138        4.02997
C          1.84556      -10.41486        3.99008
C          2.92159      -11.00383        4.91682
C          3.02268      -12.53703        4.87628
C          4.09493      -13.12678        5.80465
C          4.19216      -14.65699        5.75982
C          5.26055      -15.23505        6.69085
C         -6.71071       -0.12583       -3.02142
C         -6.07862       -0.99886       -4.07694
O         -7.21088        0.95803       -3.20120
C         -6.79589       -2.34743       -4.27226
C         -6.19572       -3.20277       -5.39922
C         -6.92183       -4.53883       -5.63152
C         -6.35418       -5.37488       -6.79121
C         -7.08603       -6.70611       -7.02841
C         -6.54447       -7.52635       -8.21117
C         -7.27964       -8.85548       -8.44855
C         -6.75899       -9.66351       -9.64865
C         -7.49776      -10.99046       -9.88576
C         -6.99293      -11.78955      -11.09818
C         -7.73525      -13.11420      -11.33632
C         -7.24170      -13.90881      -12.55445
C         -7.98934      -15.22719      -12.78916
C         -7.49172      -16.00854      -14.00723
H         -7.72112        2.48989        0.29112
H         -7.08300        1.54655        1.68270
H         -3.64237        4.14858        1.71961
H         -4.11120        4.45543        3.41354
H         -5.89214        6.05066        2.61843
H         -5.47044        5.70309        0.93831
H         -3.16982        6.64457        1.30680
H         -3.55964        6.97617        2.99537
H         -5.37826        8.56066        2.27738
H         -5.02296        8.21560        0.58482
H         -2.69479        9.13424        0.87901
H         -3.03628        9.47381        2.57514
H         -4.87506       11.05994        1.89178
H         -4.54481       10.71659        0.19403
H         -2.20689       11.62468        0.46052
H         -2.52979       11.96763        2.15939
H         -4.37397       13.55676        1.48898
H         -4.05284       13.21384       -0.21041
H         -1.71049       14.11594        0.04609
H         -2.02620       14.46045        1.74586
H         -3.87029       16.05295        1.08037
H         -3.55345       15.70948       -0.61960
H         -1.20790       16.60697       -0.36722
H         -1.52043       16.95181        1.33301
H         -3.36158       18.54916        0.67059
H         -3.04751       18.20593       -1.02985
H         -0.70090       19.10288       -0.78076
H         -1.01068       19.44527        0.92084
H         -2.85250       21.03909        0.26469
H         -2.54266       20.69803       -1.43613
H         -0.50681       21.97806        0.51190
H         -1.42403       22.83269       -0.74948
H         -0.19328       21.63178       -1.20373
H         -5.80615        1.68410       -1.11543
H         -8.09930        0.54137       -0.99950
H         -7.34472       -0.66649        0.10133
H         -2.96540        0.02745        1.59720
H         -1.86597        0.05641        0.18676
H         -2.71065       -2.19949       -0.51938
H         -3.81873       -2.23198        0.85909
H         -1.86534       -2.14906        2.44606
H         -0.74788       -2.07843        1.08322
H         -1.51397       -4.35901        0.32724
H         -2.65732       -4.42643        1.66911
H         -0.74936       -4.29504        3.31125
H          0.40037       -4.20461        1.97761
H         -0.32478       -6.49089        1.19230
H         -1.48929       -6.57856        2.51395
H          0.39445       -6.43025        4.18790
H          1.56130       -6.32745        2.87024
H          0.86092       -8.61725        2.06848
H         -0.31527       -8.71754        3.37854
H          1.55373       -8.55787        5.07032
H          2.73046       -8.44800        3.76207
H          2.04427      -10.73995        2.95107
H          0.86174      -10.84728        4.25464
H          2.72163      -10.68128        5.95639
H          3.90453      -10.56830        4.65391
H          3.22535      -12.86097        3.83767
H          2.03885      -12.97178        5.13721
H          3.89309      -12.80779        6.84508
H          5.08031      -12.69383        5.54598
H          4.39731      -14.97874        4.72184
H          3.20800      -15.09093        6.01746
H          6.26591      -14.85814        6.43599
H          5.29325      -16.33406        6.62798
H          5.06614      -14.96799        7.74377
H         -5.02849       -1.16155       -3.77851
H         -6.07935       -0.41100       -5.00606
H         -7.86164       -2.15334       -4.49278
H         -6.77586       -2.90438       -3.31975
H         -5.12853       -3.39795       -5.18259
H         -6.20767       -2.61795       -6.33840
H         -7.99291       -4.33752       -5.82381
H         -6.89356       -5.13744       -4.70125
H         -5.28141       -5.57536       -6.60729
H         -6.38949       -4.77289       -7.71922
H         -8.16124       -6.50189       -7.19309
H         -7.03762       -7.31849       -6.10776
H         -5.46775       -7.72805       -8.05313
H         -6.60023       -6.91322       -9.13088
H         -8.35795       -8.65081       -8.59120
H         -7.21375       -9.47715       -7.53527
H         -5.67972       -9.86652       -9.51097
H         -6.83043       -9.04191      -10.56156
H         -8.57786      -10.78455      -10.01230
H         -7.41968      -11.61891       -8.97812
H         -5.91232      -11.99458      -10.97467
H         -7.07442      -11.16121      -12.00561
H         -8.81600      -12.90648      -11.45419
H         -7.65128      -13.74695      -10.43220
H         -6.16110      -14.12004      -12.44035
H         -7.32765      -13.27858      -13.46034
H         -9.06902      -15.01682      -12.90456
H         -7.90433      -15.86030      -11.88635
H         -7.59596      -15.41908      -14.93433
H         -8.05884      -16.94261      -14.14291
H         -6.42621      -16.27785      -13.90695
