36
TRIPHENYLETHYLENE.gamout	Energy:    -770.7086900
C          4.65415        5.62237        2.27731
C          5.91526        5.14108        2.45550
C          6.25757        3.68665        2.42975
C          7.04828        6.09578        2.63485
C          3.35729        4.92916        2.19591
C          5.92394        2.88518        1.32431
C          6.95832        3.09408        3.49482
C          8.31645        5.82491        2.08492
C          6.88799        7.30089        3.34568
C          2.30485        5.55256        1.49538
C          3.08194        3.70403        2.83447
C          6.26280        1.53251        1.29316
C          7.28787        1.73835        3.46874
C          9.36701        6.73194        2.21519
C          7.94023        8.20741        3.47771
C          1.04372        4.96490        1.40351
C          1.81928        3.12152        2.74976
C          6.94119        0.95228        2.36729
C          9.18603        7.93028        2.91013
C          0.79431        3.74156        2.02909
H          4.57111        6.70779        2.16745
H          5.39349        3.33322        0.48164
H          7.24085        3.70399        4.35611
H          8.47412        4.89534        1.53508
H          5.93001        7.51572        3.82308
H          2.48688        6.51472        1.00907
H          3.86090        3.21192        3.41615
H          5.99734        0.92831        0.42235
H          7.82195        1.29414        4.31215
H         10.33619        6.50017        1.76754
H          7.78889        9.13133        4.04102
H          0.25048        5.46786        0.84576
H          1.63229        2.17358        3.25982
H          7.20481       -0.10780        2.34336
H         10.01179        8.63751        3.01753
H         -0.19364        3.27977        1.96513
