35
TRIPHENYLMETHANE.gamout	Energy:    -732.6619927
C          1.72368       -1.64271        1.42823
C          2.75753       -1.65167        0.29843
C          0.30853       -1.97913        0.94877
C          1.79126       -0.36996        2.27682
C          4.07934       -2.02472        0.58809
C         -0.05591       -3.32640        0.79522
C          2.06573        0.89003        1.72841
C          2.44887       -1.27172       -1.01409
C         -0.63962       -0.99759        0.63231
C          1.55222       -0.45606        3.65629
C          5.06588       -2.01031       -0.39822
C         -1.32130       -3.68449        0.32887
C          2.08768        2.03088        2.53348
C          3.43444       -1.25402       -2.00447
C         -1.90671       -1.35143        0.16140
C          1.57806        0.68071        4.46529
C          4.74588       -1.62260       -1.70212
C         -2.25344       -2.69431        0.00702
C          1.84406        1.93197        3.90443
H          2.01115       -2.46500        2.10259
H          4.33926       -2.32315        1.60746
H          0.67037       -4.10644        1.03986
H          2.27494        0.98184        0.66100
H          1.42501       -0.99444       -1.27164
H         -0.39130        0.05754        0.76016
H          1.33743       -1.43141        4.10125
H          6.08710       -2.30818       -0.14871
H         -1.58158       -4.74010        0.22023
H          2.30307        3.00371        2.08530
H          3.17123       -0.95381       -3.02149
H         -2.62889       -0.56816       -0.08077
H          1.39231        0.58752        5.53799
H          5.51441       -1.61222       -2.47855
H         -3.24621       -2.96919       -0.35657
H          1.86781        2.82444        4.53404
