29
TRIS-(2-HYDROXYETHYL)-METHYLAMMONIUM+1.gamout	Energy:    -556.9891810
N         -1.06319        2.07205       -0.40741
C         -0.80837        3.14900       -1.43227
H          0.24593        3.12963       -1.72005
H         -1.03206        4.12502       -0.99040
H         -1.46479        2.96671       -2.29195
C         -2.54697        2.07131       -0.05220
C         -0.25014        2.31647        0.85564
C         -0.71453        0.73778       -1.06207
C         -3.15234        3.38060        0.46085
H         -2.69907        1.28084        0.68914
H         -3.08392        1.77128       -0.96214
C          1.26597        2.20639        0.75621
H         -0.62480        1.60468        1.60200
H         -0.50605        3.33012        1.18634
C         -0.64323       -0.49434       -0.17022
H          0.25695        0.87841       -1.55303
H         -1.47341        0.58817       -1.84090
O         -4.46873        3.01126        0.77431
H         -3.11998        4.16883       -0.31500
H         -2.60916        3.76548        1.34701
H         -4.98299        3.79433        1.01307
O          1.76584        3.20421       -0.09869
H          1.58035        1.19424        0.43793
H          1.62487        2.33040        1.79694
H          2.72839        3.25061       -0.01810
O         -1.87396       -0.71551        0.46912
H          0.18754       -0.40618        0.55433
H         -0.37285       -1.32067       -0.85630
H         -1.87878       -1.59003        0.88194
