34
UNDECANOATE-1.gamout	Energy:    -581.5265689
O         -6.47414        0.53633        0.05190
O         -5.31551       -1.40931        0.13550
C          1.07939        0.53366       -0.01128
C          2.34446       -0.33441        0.02836
C         -0.23464       -0.25743        0.04554
C          3.65686        0.45886       -0.02353
C         -1.50404        0.60634       -0.00176
C          4.92106       -0.40930        0.00836
C         -2.81657       -0.18645        0.06485
C          6.23045        0.38543       -0.04357
C         -4.08857        0.65826        0.01472
C          7.48441       -0.49123       -0.01480
C         -5.44198       -0.16494        0.07428
H          1.09365        1.15136       -0.93000
H          1.10805        1.25334        0.82974
H          2.31956       -1.05080       -0.81516
H          2.33196       -0.95491        0.94484
H         -0.24784       -0.87062        0.96711
H         -0.25849       -0.98174       -0.79144
H          3.68492        1.17138        0.82317
H          3.66883        1.08282       -0.93774
H         -1.47229        1.33723        0.83087
H         -1.48817        1.21597       -0.92717
H          4.89566       -1.12114       -0.83903
H          4.91263       -1.03376        0.92228
H         -2.85841       -0.92468       -0.75613
H         -2.84157       -0.79985        0.98339
H          6.24139        1.01061       -0.95588
H          6.26026        1.09467        0.80467
H         -4.11701        1.27067       -0.90798
H         -4.10890        1.38920        0.84694
H          7.50808       -1.18921       -0.86965
H          7.53030       -1.09958        0.90502
H          8.40376        0.11515       -0.05741
