12
URACIL.gamout	Energy:    -414.3055954
C         -0.21890        1.40583       -0.20104
C         -1.36780        0.69236       -0.16908
C         -1.31983       -0.75368        0.05064
N         -0.00679       -1.24871        0.21058
N          1.00930        0.81600       -0.03267
C          1.18744       -0.55040        0.18376
H          0.07676       -2.25015        0.36616
H          1.86356        1.36099       -0.05864
H         -0.20457        2.48578       -0.36177
H         -2.34126        1.15994       -0.30251
O         -2.27218       -1.50414        0.10108
O          2.27887       -1.05449        0.33074
