19
VANILLATE-1.gamout	Energy:    -609.2331671
C          5.01489       -2.64347       -0.00350
O          4.87777       -3.88805        0.01949
O          6.05432       -1.95037        0.01597
C          3.68127       -1.83884       -0.06627
C          2.45990       -2.53005       -0.10918
C          1.25776       -1.83119       -0.16895
C          1.24744       -0.42148       -0.17252
C          2.45872        0.26780       -0.12400
C          3.66647       -0.44135       -0.07744
C         -0.10521       -3.79403       -0.21701
O         -0.00938       -2.39488       -0.22723
O          0.05100        0.24587       -0.22291
H          0.41324       -4.25365       -1.07927
H          2.53343       -3.62001       -0.09044
H          4.63570        0.06224       -0.04570
H          2.43047        1.36150       -0.12186
H         -0.62709       -0.44716       -0.24647
H          0.32253       -4.22998        0.70538
H         -1.17622       -4.04491       -0.26909
