20
VANILLIC_ACID.gamout	Energy:    -609.7952928
O          1.46442        0.28688        0.03670
O          1.74600        2.88200       -0.04756
O         -3.51336       -0.57030        0.37540
O         -4.47644        1.45348        0.38627
C          0.31829        1.00438        0.09237
C         -2.09087        1.31912        0.23906
C         -0.96544        0.47183        0.18852
C          0.48236        2.41367        0.04586
C         -1.92341        2.70430        0.19319
C         -0.64054        3.24276        0.09693
C         -3.46897        0.78313        0.33957
C          1.38956       -1.11783        0.07611
H         -1.12004       -0.60459        0.22543
H         -2.80438        3.34552        0.23322
H         -0.49936        4.32763        0.06003
H          2.42277       -1.48670        0.01992
H          0.93042       -1.48108        1.01428
H          0.81696       -1.52526       -0.77768
H          1.72447        3.84807       -0.07110
H         -4.45435       -0.80446        0.44047
