19
VANILLIN.gamout	Energy:    -534.6254978
C          0.80888        1.92866        1.08423
O          1.85876        1.83251        0.13106
C          3.07118        2.34891        0.47979
C          4.16733        1.49726        0.59381
C          3.26665        3.73976        0.65964
C          5.44876        1.98905        0.88494
O          2.19205        4.55110        0.51811
C          4.54643        4.22957        0.96436
C          6.59403        1.06203        0.99566
C          5.63011        3.36659        1.07524
O          7.73099        1.38992        1.25439
H          1.08577        1.43427        2.03375
H          0.53540        2.97626        1.28749
H         -0.05591        1.40587        0.65250
H          4.00129        0.42792        0.43959
H          2.46152        5.47040        0.64826
H          4.68061        5.30750        1.10327
H          6.33318       -0.01460        0.81726
H          6.63051        3.73712        1.30567
