15
VINYL_PROPIONATE.gamout	Energy:    -345.3297699
O          4.33428        2.40089        1.33107
C          3.44050        1.38547        1.17138
C          2.03299        1.94012        1.16242
O          3.73872        0.22616        1.05671
C          5.70295        2.23814        1.38345
C          0.96893        0.86293        0.99055
C          6.43304        1.12364        1.29578
H          1.89707        2.50539        2.10100
H          1.98335        2.69717        0.36028
H          6.15876        3.22240        1.51822
H         -0.03641        1.30970        0.98929
H          1.10671        0.31756        0.04471
H          1.01812        0.12369        1.80428
H          6.00293        0.13412        1.16229
H          7.51816        1.23094        1.36414
