6
VINYL_CHLORIDE.gamout	Energy:    -537.8792793
C          1.80937        0.90380        0.75675
C          0.75267        0.81747        1.56208
Cl         0.39468        1.97896        2.80969
H          2.52870        1.72279        0.83117
H          1.97034        0.13640       -0.00496
H          0.01786        0.01002        1.51007
