6
VINYL_FLUORIDE.gamout	Energy:    -177.6013955
C          2.16253        1.96921        0.09191
C          0.99625        1.33484        0.05047
F          0.89741        0.00084        0.06596
H          3.10516        1.41902        0.14115
H          2.18395        3.05991        0.07665
H          0.01611        1.82143        0.00047
