9
VINYL_FORMATE.gamout	Energy:    -266.8024537
C         52.04759       11.01728       -0.00000
O         50.85746       10.33285        0.00000
C         49.69415       11.02859        0.00000
C         53.21502       10.37938       -0.00000
O         48.62805       10.49722       -0.00000
H         51.95669       12.11037       -0.00000
H         49.85549       12.13394        0.00000
H         54.14375       10.95142        0.00000
H         53.26571        9.28828        0.00000
