10
VINYLACETONITRILE.gamout	Energy:    -209.8556280
C         30.02051       -0.00693        0.25805
C         29.14675        1.22628        0.32858
C         31.37579        0.28019       -0.23133
N         32.44311        0.52354       -0.61125
C         27.97612        1.34633       -0.29856
H         30.11963       -0.46371        1.26012
H         29.56339       -0.76744       -0.39648
H         29.52738        2.04654        0.94801
H         27.37142        2.25201       -0.20285
H         27.57495        0.54663       -0.93046
