23
XANTHONE.gamout	Energy:    -649.8211379
O         -2.20701        0.18333       -2.59707
C         -2.25873        0.49124       -1.41515
C         -2.22783       -0.50676       -0.32074
C         -2.35869        1.89336       -0.94853
C         -2.29118       -0.09457        1.02159
C         -2.13523       -1.88293       -0.60136
C         -2.41518        2.18408        0.42598
C         -2.39919        2.95877       -1.86677
O         -2.38227        1.21475        1.37974
C         -2.26323       -1.03009        2.06370
C         -2.10716       -2.81578        0.42548
C         -2.51011        3.50625        0.87829
C         -2.49311        4.27101       -1.42644
C         -2.17163       -2.38413        1.76213
C         -2.54863        4.54205       -0.04771
H         -2.08670       -2.17908       -1.65132
H         -2.35407        2.70780       -2.92848
H         -2.31484       -0.67089        3.09250
H         -2.03549       -3.88135        0.19854
H         -2.55180        3.69126        1.95258
H         -2.52407        5.09171       -2.14578
H         -2.14981       -3.11528        2.57392
H         -2.62307        5.57429        0.30326
